Clear

New Circuit.ALPINE_Reduced bus1=SourceBus basekv=12 R1=0.063 X1=0.5495 R0=0.0152 X0=1.3295 Sequence=pos
New Line.0355_03551 Phases=3 bus1=0355.1.2.3 bus2=03551.1.2.3 Units=kft Length=0.1113 Rmatrix=[0.037967           0.011467           0.011467| 0.011467           0.037967           0.011467| 0.011467           0.011467           0.037967|] Xmatrix=[ 0.18657           0.071467           0.071467| 0.071467            0.18657           0.071467| 0.071467           0.071467            0.18657|] Cmatrix=[0                  0                  0| 0                  0                  0| 0                  0                  0|]
New Line.03551_03552 Phases=3 bus1=03551.1.2.3 bus2=03552.1.2.3 Units=kft Length=0.06875 Rmatrix=[0.037967           0.011467           0.011467| 0.011467           0.037967           0.011467| 0.011467           0.011467           0.037967|] Xmatrix=[ 0.18657           0.071467           0.071467| 0.071467            0.18657           0.071467| 0.071467           0.071467            0.18657|] Cmatrix=[0                  0                  0| 0                  0                  0| 0                  0                  0|]
New Line.03552_03552a Phases=3 bus1=03552.1.2.3 bus2=03552a.1.2.3 Units=kft Length=0.01 Rmatrix=[0.037967           0.011467           0.011467| 0.011467           0.037967           0.011467| 0.011467           0.011467           0.037967|] Xmatrix=[ 0.18657           0.071467           0.071467| 0.071467            0.18657           0.071467| 0.071467           0.071467            0.18657|] Cmatrix=[0                  0                  0| 0                  0                  0| 0                  0                  0|]
New Line.035510_035511 Phases=3 bus1=035510.1.2.3 bus2=035511.1.2.3 Units=kft Length=0.1623 Rmatrix=[0.0407             0.0101             0.0101| 0.0101             0.0407             0.0101| 0.0101             0.0101             0.0407|] Xmatrix=[0.1875              0.071              0.071|  0.071             0.1875              0.071|  0.071              0.071             0.1875|] Cmatrix=[0                  0                  0| 0                  0                  0| 0                  0                  0|]
New Line.035510_035510a Phases=1 bus1=035510.1 bus2=035510a.1 Units=kft Length=0.01 Rmatrix=0.0265 Xmatrix=0.1151 Cmatrix=0
New Line.035511_035512 Phases=3 bus1=035511.1.2.3 bus2=035512.1.2.3 Units=kft Length=0.1386 Rmatrix=[0.0407             0.0101             0.0101| 0.0101             0.0407             0.0101| 0.0101             0.0101             0.0407|] Xmatrix=[0.1875              0.071              0.071|  0.071             0.1875              0.071|  0.071              0.071             0.1875|] Cmatrix=[0                  0                  0| 0                  0                  0| 0                  0                  0|]
New Line.035510a_03551001 Phases=1 bus1=035510a.1 bus2=03551001.1 Units=kft Length=0.066 Rmatrix=0.1809 Xmatrix=0.1441 Cmatrix=0
New Line.035512_03551201 Phases=3 bus1=035512.1.2.3 bus2=03551201.1.2.3 Units=kft Length=0.0828 Rmatrix=[ 0.34977           0.041767           0.041767| 0.041767            0.34977           0.041767| 0.041767           0.041767            0.34977|] Xmatrix=[0.26817            0.10857            0.10857| 0.10857            0.26817            0.10857| 0.10857            0.10857            0.26817|] Cmatrix=[0                  0                  0| 0                  0                  0| 0                  0                  0|]
New Line.035512_035513 Phases=3 bus1=035512.1.2.3 bus2=035513.1.2.3 Units=kft Length=0.4033 Rmatrix=[0.0407             0.0101             0.0101| 0.0101             0.0407             0.0101| 0.0101             0.0101             0.0407|] Xmatrix=[0.1875              0.071              0.071|  0.071             0.1875              0.071|  0.071              0.071             0.1875|] Cmatrix=[0                  0                  0| 0                  0                  0| 0                  0                  0|]
New Line.03551201_03551202 Phases=3 bus1=03551201.1.2.3 bus2=03551202.1.2.3 Units=kft Length=0.2058 Rmatrix=[ 0.34977           0.041767           0.041767| 0.041767            0.34977           0.041767| 0.041767           0.041767            0.34977|] Xmatrix=[0.26817            0.10857            0.10857| 0.10857            0.26817            0.10857| 0.10857            0.10857            0.26817|] Cmatrix=[0                  0                  0| 0                  0                  0| 0                  0                  0|]
New Line.035513_03551306 Phases=3 bus1=035513.1.2.3 bus2=03551306.1.2.3 Units=kft Length=0.2249 Rmatrix=[ 0.32987           0.042367           0.042367| 0.042367            0.32987           0.042367| 0.042367           0.042367            0.32987|] Xmatrix=[0.25563            0.10623            0.10623| 0.10623            0.25563            0.10623| 0.10623            0.10623            0.25563|] Cmatrix=[0                  0                  0| 0                  0                  0| 0                  0                  0|]
New Line.035513_035514 Phases=3 bus1=035513.1.2.3 bus2=035514.1.2.3 Units=kft Length=0.4005 Rmatrix=[0.065867           0.017167           0.017167| 0.017167           0.065867           0.017167| 0.017167           0.017167           0.065867|] Xmatrix=[ 0.19583           0.074133           0.074133| 0.074133            0.19583           0.074133| 0.074133           0.074133            0.19583|] Cmatrix=[0                  0                  0| 0                  0                  0| 0                  0                  0|]
New Line.035513_035513a Phases=2 bus1=035513.1.3 bus2=035513a.1.3 Units=kft Length=0.01 Rmatrix=[0.037967           0.011467| 0.011467           0.037967|] Xmatrix=[ 0.18657           0.071467| 0.071467            0.18657|] Cmatrix=[0                  0| 0                  0|]
New Line.035513_03551394 Phases=2 bus1=035513.2.3 bus2=03551394.2.3 Units=kft Length=0.2985 Rmatrix=[0.4986             0.0422| 0.0422             0.4986|] Xmatrix=[0.2751             0.1203| 0.1203             0.2751|] Cmatrix=[0                  0| 0                  0|]
New Line.03551306_03551392 Phases=2 bus1=03551306.1.3 bus2=03551392.1.3 Units=kft Length=0.1549 Rmatrix=[0.4986             0.0422| 0.0422             0.4986|] Xmatrix=[0.2751             0.1203| 0.1203             0.2751|] Cmatrix=[0                  0| 0                  0|]
New Line.03551306_03551306a Phases=3 bus1=03551306.1.2.3 bus2=03551306a.1.2.3 Units=kft Length=0.01 Rmatrix=[0.037967           0.011467           0.011467| 0.011467           0.037967           0.011467| 0.011467           0.011467           0.037967|] Xmatrix=[ 0.18657           0.071467           0.071467| 0.071467            0.18657           0.071467| 0.071467           0.071467            0.18657|] Cmatrix=[0                  0                  0| 0                  0                  0| 0                  0                  0|]
New Line.03551394_03551394a Phases=2 bus1=03551394.2.3 bus2=03551394a.2.3 Units=kft Length=0.01 Rmatrix=[0.037967           0.011467| 0.011467           0.037967|] Xmatrix=[ 0.18657           0.071467| 0.071467            0.18657|] Cmatrix=[0                  0| 0                  0|]
New Line.035514_035515 Phases=3 bus1=035514.1.2.3 bus2=035515.1.2.3 Units=kft Length=0.3905 Rmatrix=[0.065867           0.017167           0.017167| 0.017167           0.065867           0.017167| 0.017167           0.017167           0.065867|] Xmatrix=[ 0.19583           0.074133           0.074133| 0.074133            0.19583           0.074133| 0.074133           0.074133            0.19583|] Cmatrix=[0                  0                  0| 0                  0                  0| 0                  0                  0|]
New Line.03551301_03551305 Phases=2 bus1=03551301.1.3 bus2=03551305.1.3 Units=kft Length=0.3428 Rmatrix=[0.4986             0.0422| 0.0422             0.4986|] Xmatrix=[0.2751             0.1203| 0.1203             0.2751|] Cmatrix=[0                  0| 0                  0|]
New Line.03551301_03551301a Phases=2 bus1=03551301.1.3 bus2=03551301a.1.3 Units=kft Length=0.01 Rmatrix=[0.037967           0.011467| 0.011467           0.037967|] Xmatrix=[ 0.18657           0.071467| 0.071467            0.18657|] Cmatrix=[0                  0| 0                  0|]
New Line.03551301a_03551302 Phases=2 bus1=03551301a.1.3 bus2=03551302.1.3 Units=kft Length=0.334 Rmatrix=[ 0.21807           0.037167| 0.037167            0.21807|] Xmatrix=[ 0.23713           0.093033| 0.093033            0.23713|] Cmatrix=[0                  0| 0                  0|]
New Line.03551302_03551303 Phases=2 bus1=03551302.1.3 bus2=03551303.1.3 Units=kft Length=0.149 Rmatrix=[ 0.21807           0.037167| 0.037167            0.21807|] Xmatrix=[ 0.23713           0.093033| 0.093033            0.23713|] Cmatrix=[0                  0| 0                  0|]
New Line.03551302_03551304 Phases=2 bus1=03551302.1.3 bus2=03551304.1.3 Units=kft Length=0.196 Rmatrix=[ 0.21807           0.037167| 0.037167            0.21807|] Xmatrix=[ 0.23713           0.093033| 0.093033            0.23713|] Cmatrix=[0                  0| 0                  0|]
New Line.03551392_03551393 Phases=2 bus1=03551392.1.3 bus2=03551393.1.3 Units=kft Length=0.1467 Rmatrix=[0.4986             0.0422| 0.0422             0.4986|] Xmatrix=[0.2751             0.1203| 0.1203             0.2751|] Cmatrix=[0                  0| 0                  0|]
New Line.03551306a_03551307 Phases=3 bus1=03551306a.1.2.3 bus2=03551307.1.2.3 Units=kft Length=0.3741 Rmatrix=[ 0.32987           0.042367           0.042367| 0.042367            0.32987           0.042367| 0.042367           0.042367            0.32987|] Xmatrix=[0.25563            0.10623            0.10623| 0.10623            0.25563            0.10623| 0.10623            0.10623            0.25563|] Cmatrix=[0                  0                  0| 0                  0                  0| 0                  0                  0|]
New Line.03551307_03551308 Phases=3 bus1=03551307.1.2.3 bus2=03551308.1.2.3 Units=kft Length=0.268 Rmatrix=[ 0.32987           0.042367           0.042367| 0.042367            0.32987           0.042367| 0.042367           0.042367            0.32987|] Xmatrix=[0.25563            0.10623            0.10623| 0.10623            0.25563            0.10623| 0.10623            0.10623            0.25563|] Cmatrix=[0                  0                  0| 0                  0                  0| 0                  0                  0|]
New Line.03551308_03551314 Phases=3 bus1=03551308.1.2.3 bus2=03551314.1.2.3 Units=kft Length=0.4285 Rmatrix=[ 0.32987           0.042367           0.042367| 0.042367            0.32987           0.042367| 0.042367           0.042367            0.32987|] Xmatrix=[0.25563            0.10623            0.10623| 0.10623            0.25563            0.10623| 0.10623            0.10623            0.25563|] Cmatrix=[0                  0                  0| 0                  0                  0| 0                  0                  0|]
New Line.03551308_03551308a Phases=2 bus1=03551308.1.3 bus2=03551308a.1.3 Units=kft Length=0.01 Rmatrix=[0.037967           0.011467| 0.011467           0.037967|] Xmatrix=[ 0.18657           0.071467| 0.071467            0.18657|] Cmatrix=[0                  0| 0                  0|]
New Line.03551314_03551315 Phases=3 bus1=03551314.1.2.3 bus2=03551315.1.2.3 Units=kft Length=0.3168 Rmatrix=[ 0.32987           0.042367           0.042367| 0.042367            0.32987           0.042367| 0.042367           0.042367            0.32987|] Xmatrix=[0.25563            0.10623            0.10623| 0.10623            0.25563            0.10623| 0.10623            0.10623            0.25563|] Cmatrix=[0                  0                  0| 0                  0                  0| 0                  0                  0|]
New Line.03551314_03551367 Phases=2 bus1=03551314.2.3 bus2=03551367.2.3 Units=kft Length=0.1958 Rmatrix=[0.4986             0.0422| 0.0422             0.4986|] Xmatrix=[0.2751             0.1203| 0.1203             0.2751|] Cmatrix=[0                  0| 0                  0|]
New Line.03551308a_03551309 Phases=2 bus1=03551308a.1.3 bus2=03551309.1.3 Units=kft Length=0.1673 Rmatrix=[ 0.32987           0.042367| 0.042367            0.32987|] Xmatrix=[0.25563            0.10623| 0.10623            0.25563|] Cmatrix=[0                  0| 0                  0|]
New Line.03551308a_03551313 Phases=2 bus1=03551308a.1.3 bus2=03551313.1.3 Units=kft Length=0.1788 Rmatrix=[ 0.34977           0.041767| 0.041767            0.34977|] Xmatrix=[0.26817            0.10857| 0.10857            0.26817|] Cmatrix=[0                  0| 0                  0|]
New Line.03551309_03551310 Phases=2 bus1=03551309.1.3 bus2=03551310.1.3 Units=kft Length=0.1628 Rmatrix=[ 0.34977           0.041767| 0.041767            0.34977|] Xmatrix=[0.26817            0.10857| 0.10857            0.26817|] Cmatrix=[0                  0| 0                  0|]
New Line.03551310_03551311 Phases=2 bus1=03551310.1.3 bus2=03551311.1.3 Units=kft Length=0.1689 Rmatrix=[ 0.34977           0.041767| 0.041767            0.34977|] Xmatrix=[0.26817            0.10857| 0.10857            0.26817|] Cmatrix=[0                  0| 0                  0|]
New Line.03551311_03551312 Phases=2 bus1=03551311.1.3 bus2=03551312.1.3 Units=kft Length=0.312 Rmatrix=[ 0.34977           0.041767| 0.041767            0.34977|] Xmatrix=[0.26817            0.10857| 0.10857            0.26817|] Cmatrix=[0                  0| 0                  0|]
New Line.03551315_03551316 Phases=3 bus1=03551315.1.2.3 bus2=03551316.1.2.3 Units=kft Length=0.4474 Rmatrix=[ 0.32987           0.042367           0.042367| 0.042367            0.32987           0.042367| 0.042367           0.042367            0.32987|] Xmatrix=[0.25563            0.10623            0.10623| 0.10623            0.25563            0.10623| 0.10623            0.10623            0.25563|] Cmatrix=[0                  0                  0| 0                  0                  0| 0                  0                  0|]
New Line.03551367_03551367a Phases=2 bus1=03551367.2.3 bus2=03551367a.2.3 Units=kft Length=0.01 Rmatrix=[0.037967           0.011467| 0.011467           0.037967|] Xmatrix=[ 0.18657           0.071467| 0.071467            0.18657|] Cmatrix=[0                  0| 0                  0|]
New Line.03551316_03551317 Phases=3 bus1=03551316.1.2.3 bus2=03551317.1.2.3 Units=kft Length=0.211 Rmatrix=[ 0.32987           0.042367           0.042367| 0.042367            0.32987           0.042367| 0.042367           0.042367            0.32987|] Xmatrix=[0.25563            0.10623            0.10623| 0.10623            0.25563            0.10623| 0.10623            0.10623            0.25563|] Cmatrix=[0                  0                  0| 0                  0                  0| 0                  0                  0|]
New Line.03551317_03551318 Phases=3 bus1=03551317.1.2.3 bus2=03551318.1.2.3 Units=kft Length=0.339 Rmatrix=[ 0.13437           0.027767           0.027767| 0.027767            0.13437           0.027767| 0.027767           0.027767            0.13437|] Xmatrix=[ 0.22403           0.083333           0.083333| 0.083333            0.22403           0.083333| 0.083333           0.083333            0.22403|] Cmatrix=[0                  0                  0| 0                  0                  0| 0                  0                  0|]
New Line.03551318_03551319 Phases=3 bus1=03551318.1.2.3 bus2=03551319.1.2.3 Units=kft Length=0.204 Rmatrix=[ 0.32987           0.042367           0.042367| 0.042367            0.32987           0.042367| 0.042367           0.042367            0.32987|] Xmatrix=[0.25563            0.10623            0.10623| 0.10623            0.25563            0.10623| 0.10623            0.10623            0.25563|] Cmatrix=[0                  0                  0| 0                  0                  0| 0                  0                  0|]
New Line.03551318_03551365 Phases=2 bus1=03551318.1.3 bus2=03551365.1.3 Units=kft Length=0.197 Rmatrix=[ 0.32987           0.042367| 0.042367            0.32987|] Xmatrix=[0.25563            0.10623| 0.10623            0.25563|] Cmatrix=[0                  0| 0                  0|]
New Line.03551319_03551320 Phases=3 bus1=03551319.1.2.3 bus2=03551320.1.2.3 Units=kft Length=0.2384 Rmatrix=[ 0.32987           0.042367           0.042367| 0.042367            0.32987           0.042367| 0.042367           0.042367            0.32987|] Xmatrix=[0.25563            0.10623            0.10623| 0.10623            0.25563            0.10623| 0.10623            0.10623            0.25563|] Cmatrix=[0                  0                  0| 0                  0                  0| 0                  0                  0|]
New Line.03551365_03551366 Phases=2 bus1=03551365.1.3 bus2=03551366.1.3 Units=kft Length=0.01 Rmatrix=[ 0.32987           0.042367| 0.042367            0.32987|] Xmatrix=[0.25563            0.10623| 0.10623            0.25563|] Cmatrix=[0                  0| 0                  0|]
New Line.03551320_03551321 Phases=3 bus1=03551320.1.2.3 bus2=03551321.1.2.3 Units=kft Length=0.2221 Rmatrix=[ 0.32987           0.042367           0.042367| 0.042367            0.32987           0.042367| 0.042367           0.042367            0.32987|] Xmatrix=[0.25563            0.10623            0.10623| 0.10623            0.25563            0.10623| 0.10623            0.10623            0.25563|] Cmatrix=[0                  0                  0| 0                  0                  0| 0                  0                  0|]
New Line.03551321_03551322 Phases=3 bus1=03551321.1.2.3 bus2=03551322.1.2.3 Units=kft Length=0.2522 Rmatrix=[ 0.32987           0.042367           0.042367| 0.042367            0.32987           0.042367| 0.042367           0.042367            0.32987|] Xmatrix=[0.25563            0.10623            0.10623| 0.10623            0.25563            0.10623| 0.10623            0.10623            0.25563|] Cmatrix=[0                  0                  0| 0                  0                  0| 0                  0                  0|]
New Line.03551322_03551323 Phases=3 bus1=03551322.1.2.3 bus2=03551323.1.2.3 Units=kft Length=0.2166 Rmatrix=[ 0.32987           0.042367           0.042367| 0.042367            0.32987           0.042367| 0.042367           0.042367            0.32987|] Xmatrix=[0.25563            0.10623            0.10623| 0.10623            0.25563            0.10623| 0.10623            0.10623            0.25563|] Cmatrix=[0                  0                  0| 0                  0                  0| 0                  0                  0|]
New Line.03551323_03551324 Phases=3 bus1=03551323.1.2.3 bus2=03551324.1.2.3 Units=kft Length=0.1578 Rmatrix=[ 0.32987           0.042367           0.042367| 0.042367            0.32987           0.042367| 0.042367           0.042367            0.32987|] Xmatrix=[0.25563            0.10623            0.10623| 0.10623            0.25563            0.10623| 0.10623            0.10623            0.25563|] Cmatrix=[0                  0                  0| 0                  0                  0| 0                  0                  0|]
New Line.03551323_03551326 Phases=2 bus1=03551323.1.2 bus2=03551326.1.2 Units=kft Length=0.211 Rmatrix=[0.4986             0.0422| 0.0422             0.4986|] Xmatrix=[0.2751             0.1203| 0.1203             0.2751|] Cmatrix=[0                  0| 0                  0|]
New Line.03551323_03551348 Phases=2 bus1=03551323.2.3 bus2=03551348.2.3 Units=kft Length=0.1163 Rmatrix=[0.4986             0.0422| 0.0422             0.4986|] Xmatrix=[0.2751             0.1203| 0.1203             0.2751|] Cmatrix=[0                  0| 0                  0|]
New Line.03551324_03551325 Phases=3 bus1=03551324.1.2.3 bus2=03551325.1.2.3 Units=kft Length=0.7357 Rmatrix=[ 0.32987           0.042367           0.042367| 0.042367            0.32987           0.042367| 0.042367           0.042367            0.32987|] Xmatrix=[0.25563            0.10623            0.10623| 0.10623            0.25563            0.10623| 0.10623            0.10623            0.25563|] Cmatrix=[0                  0                  0| 0                  0                  0| 0                  0                  0|]
New Line.03551326_03551327 Phases=2 bus1=03551326.1.2 bus2=03551327.1.2 Units=kft Length=0.1715 Rmatrix=[ 0.32987           0.042367| 0.042367            0.32987|] Xmatrix=[0.25563            0.10623| 0.10623            0.25563|] Cmatrix=[0                  0| 0                  0|]
New Line.03551348_03551349 Phases=2 bus1=03551348.2.3 bus2=03551349.2.3 Units=kft Length=0.204 Rmatrix=[0.4986             0.0422| 0.0422             0.4986|] Xmatrix=[0.2751             0.1203| 0.1203             0.2751|] Cmatrix=[0                  0| 0                  0|]
New Line.03551327_03551333 Phases=2 bus1=03551327.1.2 bus2=03551333.1.2 Units=kft Length=0.2481 Rmatrix=[ 0.32987           0.042367| 0.042367            0.32987|] Xmatrix=[0.25563            0.10623| 0.10623            0.25563|] Cmatrix=[0                  0| 0                  0|]
New Line.03551327_03551328 Phases=1 bus1=03551327.1 bus2=03551328.1 Units=kft Length=0.01 Rmatrix=0.0265 Xmatrix=0.1151 Cmatrix=0
New Line.03551333_03551334 Phases=2 bus1=03551333.1.2 bus2=03551334.1.2 Units=kft Length=0.041 Rmatrix=[ 0.32987           0.042367| 0.042367            0.32987|] Xmatrix=[0.25563            0.10623| 0.10623            0.25563|] Cmatrix=[0                  0| 0                  0|]
New Line.03551333_03551335 Phases=2 bus1=03551333.1.2 bus2=03551335.1.2 Units=kft Length=0.148 Rmatrix=[ 0.34977           0.041767| 0.041767            0.34977|] Xmatrix=[0.26817            0.10857| 0.10857            0.26817|] Cmatrix=[0                  0| 0                  0|]
New Line.03551333_03551346 Phases=2 bus1=03551333.1.2 bus2=03551346.1.2 Units=kft Length=0.1043 Rmatrix=[ 0.34977           0.041767| 0.041767            0.34977|] Xmatrix=[0.26817            0.10857| 0.10857            0.26817|] Cmatrix=[0                  0| 0                  0|]
New Line.03551328a_03551329 Phases=1 bus1=03551328a.1 bus2=03551329.1 Units=kft Length=0.096 Rmatrix=0.1809 Xmatrix=0.1441 Cmatrix=0
New Line.03551329_03551330 Phases=1 bus1=03551329.1 bus2=03551330.1 Units=kft Length=0.287 Rmatrix=0.1809 Xmatrix=0.1441 Cmatrix=0
New Line.03551330_03551331 Phases=1 bus1=03551330.1 bus2=03551331.1 Units=kft Length=0.353 Rmatrix=0.1809 Xmatrix=0.1441 Cmatrix=0
New Line.03551331_03551332 Phases=1 bus1=03551331.1 bus2=03551332.1 Units=kft Length=0.01 Rmatrix=0.1809 Xmatrix=0.1441 Cmatrix=0
New Line.03551335_03551336 Phases=2 bus1=03551335.1.2 bus2=03551336.1.2 Units=kft Length=0.1258 Rmatrix=[ 0.34977           0.041767| 0.041767            0.34977|] Xmatrix=[0.26817            0.10857| 0.10857            0.26817|] Cmatrix=[0                  0| 0                  0|]
New Line.03551335_03551345 Phases=2 bus1=03551335.1.2 bus2=03551345.1.2 Units=kft Length=0.094 Rmatrix=[ 0.34977           0.041767| 0.041767            0.34977|] Xmatrix=[0.26817            0.10857| 0.10857            0.26817|] Cmatrix=[0                  0| 0                  0|]
New Line.03551346_03551347 Phases=2 bus1=03551346.1.2 bus2=03551347.1.2 Units=kft Length=0.192 Rmatrix=[ 0.34977           0.041767| 0.041767            0.34977|] Xmatrix=[0.26817            0.10857| 0.10857            0.26817|] Cmatrix=[0                  0| 0                  0|]
New Line.03551336_03551337 Phases=2 bus1=03551336.1.2 bus2=03551337.1.2 Units=kft Length=0.0426 Rmatrix=[ 0.34977           0.041767| 0.041767            0.34977|] Xmatrix=[0.26817            0.10857| 0.10857            0.26817|] Cmatrix=[0                  0| 0                  0|]
New Line.03551336_03551339 Phases=2 bus1=03551336.1.2 bus2=03551339.1.2 Units=kft Length=0.2876 Rmatrix=[ 0.34977           0.041767| 0.041767            0.34977|] Xmatrix=[0.26817            0.10857| 0.10857            0.26817|] Cmatrix=[0                  0| 0                  0|]
New Line.03551336_03551342 Phases=2 bus1=03551336.1.2 bus2=03551342.1.2 Units=kft Length=0.095 Rmatrix=[ 0.34977           0.041767| 0.041767            0.34977|] Xmatrix=[0.26817            0.10857| 0.10857            0.26817|] Cmatrix=[0                  0| 0                  0|]
New Line.03551337_03551337a Phases=2 bus1=03551337.1.2 bus2=03551337a.1.2 Units=kft Length=0.01 Rmatrix=[0.037967           0.011467| 0.011467           0.037967|] Xmatrix=[ 0.18657           0.071467| 0.071467            0.18657|] Cmatrix=[0                  0| 0                  0|]
New Line.03551339_03551340 Phases=2 bus1=03551339.1.2 bus2=03551340.1.2 Units=kft Length=0.1679 Rmatrix=[ 0.34977           0.041767| 0.041767            0.34977|] Xmatrix=[0.26817            0.10857| 0.10857            0.26817|] Cmatrix=[0                  0| 0                  0|]
New Line.03551342_03551343 Phases=2 bus1=03551342.1.2 bus2=03551343.1.2 Units=kft Length=0.3305 Rmatrix=[ 0.34977           0.041767| 0.041767            0.34977|] Xmatrix=[0.26817            0.10857| 0.10857            0.26817|] Cmatrix=[0                  0| 0                  0|]
New Line.03551337a_03551338 Phases=2 bus1=03551337a.1.2 bus2=03551338.1.2 Units=kft Length=0.31 Rmatrix=[ 0.21807           0.037167| 0.037167            0.21807|] Xmatrix=[ 0.23713           0.093033| 0.093033            0.23713|] Cmatrix=[0                  0| 0                  0|]
New Line.03551340_03551341 Phases=2 bus1=03551340.1.2 bus2=03551341.1.2 Units=kft Length=0.1911 Rmatrix=[ 0.34977           0.041767| 0.041767            0.34977|] Xmatrix=[0.26817            0.10857| 0.10857            0.26817|] Cmatrix=[0                  0| 0                  0|]
New Line.03551343_03551344 Phases=2 bus1=03551343.1.2 bus2=03551344.1.2 Units=kft Length=0.01 Rmatrix=[ 0.34977           0.041767| 0.041767            0.34977|] Xmatrix=[0.26817            0.10857| 0.10857            0.26817|] Cmatrix=[0                  0| 0                  0|]
New Line.03551349_03551350 Phases=2 bus1=03551349.2.3 bus2=03551350.2.3 Units=kft Length=0.2542 Rmatrix=[0.4986             0.0422| 0.0422             0.4986|] Xmatrix=[0.2751             0.1203| 0.1203             0.2751|] Cmatrix=[0                  0| 0                  0|]
New Line.03551350_03551356 Phases=2 bus1=03551350.2.3 bus2=03551356.2.3 Units=kft Length=0.2219 Rmatrix=[0.4986             0.0422| 0.0422             0.4986|] Xmatrix=[0.2751             0.1203| 0.1203             0.2751|] Cmatrix=[0                  0| 0                  0|]
New Line.03551350_03551350a Phases=2 bus1=03551350.2.3 bus2=03551350a.2.3 Units=kft Length=0.01 Rmatrix=[0.037967           0.011467| 0.011467           0.037967|] Xmatrix=[ 0.18657           0.071467| 0.071467            0.18657|] Cmatrix=[0                  0| 0                  0|]
New Line.03551356_03551357 Phases=2 bus1=03551356.2.3 bus2=03551357.2.3 Units=kft Length=0.1129 Rmatrix=[0.4986             0.0422| 0.0422             0.4986|] Xmatrix=[0.2751             0.1203| 0.1203             0.2751|] Cmatrix=[0                  0| 0                  0|]
New Line.03551350a_03551351 Phases=2 bus1=03551350a.2.3 bus2=03551351.2.3 Units=kft Length=0.205 Rmatrix=[ 0.21807           0.037167| 0.037167            0.21807|] Xmatrix=[ 0.23713           0.093033| 0.093033            0.23713|] Cmatrix=[0                  0| 0                  0|]
New Line.03551351_03551352 Phases=2 bus1=03551351.2.3 bus2=03551352.2.3 Units=kft Length=0.294 Rmatrix=[ 0.21807           0.037167| 0.037167            0.21807|] Xmatrix=[ 0.23713           0.093033| 0.093033            0.23713|] Cmatrix=[0                  0| 0                  0|]
New Line.03551352_03551353 Phases=2 bus1=03551352.2.3 bus2=03551353.2.3 Units=kft Length=0.281 Rmatrix=[ 0.21807           0.037167| 0.037167            0.21807|] Xmatrix=[ 0.23713           0.093033| 0.093033            0.23713|] Cmatrix=[0                  0| 0                  0|]
New Line.03551353_03551354 Phases=2 bus1=03551353.2.3 bus2=03551354.2.3 Units=kft Length=0.166 Rmatrix=[ 0.21807           0.037167| 0.037167            0.21807|] Xmatrix=[ 0.23713           0.093033| 0.093033            0.23713|] Cmatrix=[0                  0| 0                  0|]
New Line.03551354_03551355 Phases=2 bus1=03551354.2.3 bus2=03551355.2.3 Units=kft Length=0.01 Rmatrix=[ 0.21807           0.037167| 0.037167            0.21807|] Xmatrix=[ 0.23713           0.093033| 0.093033            0.23713|] Cmatrix=[0                  0| 0                  0|]
New Line.03551357_03551358 Phases=2 bus1=03551357.2.3 bus2=03551358.2.3 Units=kft Length=0.1747 Rmatrix=[0.4986             0.0422| 0.0422             0.4986|] Xmatrix=[0.2751             0.1203| 0.1203             0.2751|] Cmatrix=[0                  0| 0                  0|]
New Line.03551358_03551359 Phases=2 bus1=03551358.2.3 bus2=03551359.2.3 Units=kft Length=0.1011 Rmatrix=[0.4986             0.0422| 0.0422             0.4986|] Xmatrix=[0.2751             0.1203| 0.1203             0.2751|] Cmatrix=[0                  0| 0                  0|]
New Line.03551359_03551360 Phases=2 bus1=03551359.2.3 bus2=03551360.2.3 Units=kft Length=0.3575 Rmatrix=[0.4986             0.0422| 0.0422             0.4986|] Xmatrix=[0.2751             0.1203| 0.1203             0.2751|] Cmatrix=[0                  0| 0                  0|]
New Line.03551359_03551361 Phases=2 bus1=03551359.2.3 bus2=03551361.2.3 Units=kft Length=0.1344 Rmatrix=[0.4986             0.0422| 0.0422             0.4986|] Xmatrix=[0.2751             0.1203| 0.1203             0.2751|] Cmatrix=[0                  0| 0                  0|]