Clear

 New Circuit.ALPINE_Reduced bus1=SourceBus basekv=12 R1=0.063 X1=0.5495 R0=0.0152 X0=1.3295 Sequence=pos
New Line.0355_03551 Phases=3 bus1=0355.1.2.3 bus2=03551.1.2.3 Units=km Length=0.03392424 Rmatrix=[ 0.124562554681    0.0376202974628    0.0376202974628| 0.0376202974628     0.124562554681    0.0376202974628| 0.0376202974628    0.0376202974628     0.124562554681|] Xmatrix=[ 0.61209536308     0.234470691164     0.234470691164| 0.234470691164      0.61209536308     0.234470691164| 0.234470691164     0.234470691164      0.61209536308|] Cmatrix=[0                  0                  0| 0                  0                  0| 0                  0                  0|]
New Line.03551_03552 Phases=3 bus1=03551.1.2.3 bus2=03552.1.2.3 Units=km Length=0.020955 Rmatrix=[ 0.124562554681    0.0376202974628    0.0376202974628| 0.0376202974628     0.124562554681    0.0376202974628| 0.0376202974628    0.0376202974628     0.124562554681|] Xmatrix=[ 0.61209536308     0.234470691164     0.234470691164| 0.234470691164      0.61209536308     0.234470691164| 0.234470691164     0.234470691164     0.612095363079|] Cmatrix=[0                  0                  0| 0                  0                  0| 0                  0                  0|]
New Line.03552_03552a Phases=3 bus1=03552.1.2.3 bus2=03552a.1.2.3 Units=km Length=0.003048 Rmatrix=[ 0.124562554681    0.0376202974628    0.0376202974628| 0.0376202974628     0.124562554681    0.0376202974628| 0.0376202974628    0.0376202974628     0.124562554681|] Xmatrix=[0.612095363079     0.234470691164     0.234470691164| 0.234470691164      0.61209536308     0.234470691164| 0.234470691164     0.234470691164      0.61209536308|] Cmatrix=[0                  0                  0| 0                  0                  0| 0                  0                  0|]
New Line.035510_035511 Phases=3 bus1=035510.1.2.3 bus2=035511.1.2.3 Units=km Length=0.04946904 Rmatrix=[ 0.133530183727    0.0331364829397    0.0331364829397| 0.0331364829397     0.133530183727    0.0331364829396| 0.0331364829397    0.0331364829396     0.133530183727|] Xmatrix=[0.615157480315     0.232939632546     0.232939632546| 0.232939632546     0.615157480315     0.232939632546| 0.232939632546     0.232939632546     0.615157480315|] Cmatrix=[0                  0                  0| 0                  0                  0| 0                  0                  0|]
New Line.035510_035510a Phases=1 bus1=035510.1 bus2=035510a.1 Units=km Length=0.003048 Rmatrix=0.086942257 Xmatrix=0.37762467 Cmatrix=0
New Line.035511_035512 Phases=3 bus1=035511.1.2.3 bus2=035512.1.2.3 Units=km Length=0.04224528 Rmatrix=[ 0.133530183727    0.0331364829396    0.0331364829396| 0.0331364829396     0.133530183727    0.0331364829396| 0.0331364829396    0.0331364829396     0.133530183727|] Xmatrix=[0.615157480315     0.232939632546     0.232939632546| 0.232939632546     0.615157480315     0.232939632546| 0.232939632546     0.232939632546     0.615157480315|] Cmatrix=[0                  0                  0| 0                  0                  0| 0                  0                  0|]
New Line.035510a_03551001 Phases=1 bus1=035510a.1 bus2=03551001.1 Units=km Length=0.0201168 Rmatrix=0.59350394 Xmatrix=0.47276903 Cmatrix=0
New Line.035512_03551201 Phases=3 bus1=035512.1.2.3 bus2=03551201.1.2.3 Units=km Length=0.02523744 Rmatrix=[ 1.14752843395     0.137029746282     0.137029746282| 0.137029746282      1.14752843395     0.137029746282| 0.137029746282     0.137029746282      1.14752843395|] Xmatrix=[0.879811898513     0.356189851269     0.356189851269| 0.356189851269     0.879811898513     0.356189851269| 0.356189851269     0.356189851269     0.879811898513|] Cmatrix=[0                  0                  0| 0                  0                  0| 0                  0                  0|]
New Line.035512_035513 Phases=3 bus1=035512.1.2.3 bus2=035513.1.2.3 Units=km Length=0.12292584 Rmatrix=[ 0.133530183727    0.0331364829395    0.0331364829396| 0.0331364829395     0.133530183727    0.0331364829395| 0.0331364829396    0.0331364829395     0.133530183727|] Xmatrix=[0.615157480316     0.232939632546     0.232939632546| 0.232939632546     0.615157480315     0.232939632546| 0.232939632546     0.232939632546     0.615157480316|] Cmatrix=[0                  0                  0| 0                  0                  0| 0                  0                  0|]
New Line.03551201_03551202 Phases=3 bus1=03551201.1.2.3 bus2=03551202.1.2.3 Units=km Length=0.06272784 Rmatrix=[ 1.14752843395     0.137029746282     0.137029746282| 0.137029746282      1.14752843395     0.137029746282| 0.137029746282     0.137029746282      1.14752843395|] Xmatrix=[0.879811898513     0.356189851269     0.356189851269| 0.356189851269     0.879811898513     0.356189851269| 0.356189851269     0.356189851269     0.879811898513|] Cmatrix=[0                  0                  0| 0                  0                  0| 0                  0                  0|]
New Line.035513_03551306 Phases=3 bus1=035513.1.2.3 bus2=03551306.1.2.3 Units=km Length=0.06854952 Rmatrix=[    1.08223972     0.138998250212     0.138998250223| 0.138998250212      1.08223972004     0.138998250221| 0.138998250223     0.138998250221      1.08223972004|] Xmatrix=[0.838692038503     0.348534558178     0.348534558176| 0.348534558178     0.838692038495     0.348534558182| 0.348534558176     0.348534558182     0.838692038494|] Cmatrix=[0                  0                  0| 0                  0                  0| 0                  0                  0|]
New Line.035513_035514 Phases=3 bus1=035513.1.2.3 bus2=035514.1.2.3 Units=km Length=0.1220724 Rmatrix=[ 0.216097987752    0.0563210848644    0.0563210848644| 0.0563210848644     0.216097987752    0.0563210848644| 0.0563210848644    0.0563210848644     0.216097987751|] Xmatrix=[0.642497812773      0.24321959755      0.24321959755|  0.24321959755     0.642497812773      0.24321959755|  0.24321959755      0.24321959755     0.642497812773|] Cmatrix=[0                  0                  0| 0                  0                  0| 0                  0                  0|]
New Line.035513_035513a Phases=2 bus1=035513.1.3 bus2=035513a.1.3 Units=km Length=0.003048 Rmatrix=[ 0.124562554681    0.0376202974628| 0.0376202974628     0.124562554681|] Xmatrix=[ 0.61209536308     0.234470691164| 0.234470691164      0.61209536308|] Cmatrix=[0                  0| 0                  0|]
New Line.035513_03551394 Phases=2 bus1=035513.2.3 bus2=03551394.2.3 Units=km Length=0.0909828 Rmatrix=[ 1.63582677164     0.138451443526| 0.138451443526      1.63582677169|] Xmatrix=[0.902559055115     0.394685039385| 0.394685039385     0.902559055104|] Cmatrix=[0                  0| 0                  0|]
New Line.03551306_03551392 Phases=2 bus1=03551306.1.3 bus2=03551392.1.3 Units=km Length=0.04721352 Rmatrix=[ 1.63582677165     0.138451443569| 0.138451443569      1.63582677165|] Xmatrix=[0.902559055118      0.39468503937|  0.39468503937     0.902559055119|] Cmatrix=[0                  0| 0                  0|]
New Line.03551306_03551306a Phases=3 bus1=03551306.1.2.3 bus2=03551306a.1.2.3 Units=km Length=0.003048 Rmatrix=[ 0.124562554681    0.0376202974628    0.0376202974628| 0.0376202974628     0.124562554681    0.0376202974628| 0.0376202974628    0.0376202974628     0.124562554681|] Xmatrix=[ 0.61209536308     0.234470691164     0.234470691164| 0.234470691164      0.61209536308     0.234470691164| 0.234470691164     0.234470691164     0.612095363079|] Cmatrix=[0                  0                  0| 0                  0                  0| 0                  0                  0|]
New Line.03551394_03551394a Phases=2 bus1=03551394.2.3 bus2=03551394a.2.3 Units=km Length=0.003048 Rmatrix=[ 0.124562554681    0.0376202974628| 0.0376202974628     0.124562554681|] Xmatrix=[0.612095363079     0.234470691164| 0.234470691164      0.61209536308|] Cmatrix=[0                  0| 0                  0|]
New Line.035514_035515 Phases=3 bus1=035514.1.2.3 bus2=035515.1.2.3 Units=km Length=0.1190244 Rmatrix=[ 0.216097987752    0.0563210848644    0.0563210848644| 0.0563210848644     0.216097987752    0.0563210848644| 0.0563210848644    0.0563210848644     0.216097987752|] Xmatrix=[0.642497812773      0.24321959755      0.24321959755|  0.24321959755     0.642497812773      0.24321959755|  0.24321959755      0.24321959755     0.642497812773|] Cmatrix=[0                  0                  0| 0                  0                  0| 0                  0                  0|]
New Line.03551301_03551305 Phases=2 bus1=03551301.1.3 bus2=03551305.1.3 Units=km Length=0.10448544 Rmatrix=[1.63582677165      0.13845144357| 0.13845144357      1.63582677165|] Xmatrix=[0.902559055118      0.39468503937|  0.39468503937     0.902559055119|] Cmatrix=[0                  0| 0                  0|]
New Line.03551301_03551301a Phases=2 bus1=03551301.1.3 bus2=03551301a.1.3 Units=km Length=0.003048 Rmatrix=[ 0.124562554681    0.0376202974628| 0.0376202974628     0.124562554681|] Xmatrix=[0.612095363079     0.234470691164| 0.234470691164      0.61209536308|] Cmatrix=[0                  0| 0                  0|]
New Line.03551301a_03551302 Phases=2 bus1=03551301a.1.3 bus2=03551302.1.3 Units=km Length=0.1018032 Rmatrix=[0.715441819773     0.121937882765| 0.121937882765     0.715441819772|] Xmatrix=[0.777996500438     0.305227471566| 0.305227471566     0.777996500436|] Cmatrix=[0                  0| 0                  0|]
New Line.03551302_03551303 Phases=2 bus1=03551302.1.3 bus2=03551303.1.3 Units=km Length=0.0454152 Rmatrix=[0.715441819773     0.121937882765| 0.121937882765     0.715441819773|] Xmatrix=[0.777996500437     0.305227471566| 0.305227471566     0.777996500437|] Cmatrix=[0                  0| 0                  0|]
New Line.03551302_03551304 Phases=2 bus1=03551302.1.3 bus2=03551304.1.3 Units=km Length=0.0597408 Rmatrix=[0.715441819773     0.121937882765| 0.121937882765     0.715441819773|] Xmatrix=[0.777996500437     0.305227471566| 0.305227471566     0.777996500437|] Cmatrix=[0                  0| 0                  0|]
New Line.03551392_03551393 Phases=2 bus1=03551392.1.3 bus2=03551393.1.3 Units=km Length=0.04471416 Rmatrix=[1.63582677165      0.13845144357| 0.13845144357      1.63582677165|] Xmatrix=[0.902559055118      0.39468503937|  0.39468503937     0.902559055118|] Cmatrix=[0                  0| 0                  0|]
New Line.03551306a_03551307 Phases=3 bus1=03551306a.1.2.3 bus2=03551307.1.2.3 Units=km Length=0.11402568 Rmatrix=[ 1.08223972004     0.138998250219     0.138998250218| 0.138998250219      1.08223972004     0.138998250219| 0.138998250218     0.138998250219      1.08223972003|] Xmatrix=[0.838692038496      0.34853455818      0.34853455818|  0.34853455818     0.838692038495      0.34853455818|  0.34853455818      0.34853455818     0.838692038495|] Cmatrix=[0                  0                  0| 0                  0                  0| 0                  0                  0|]
New Line.03551307_03551308 Phases=3 bus1=03551307.1.2.3 bus2=03551308.1.2.3 Units=km Length=0.0816864 Rmatrix=[ 1.08223972004     0.138998250218     0.138998250219| 0.138998250218      1.08223972004     0.138998250219| 0.138998250219     0.138998250219      1.08223972003|] Xmatrix=[0.838692038495      0.34853455818      0.34853455818|  0.34853455818     0.838692038495      0.34853455818|  0.34853455818      0.34853455818     0.838692038495|] Cmatrix=[0                  0                  0| 0                  0                  0| 0                  0                  0|]
New Line.03551308_03551314 Phases=3 bus1=03551308.1.2.3 bus2=03551314.1.2.3 Units=km Length=0.1306068 Rmatrix=[ 1.08223972003     0.138998250219     0.138998250219| 0.138998250219      1.08223972004     0.138998250219| 0.138998250219     0.138998250219      1.08223972003|] Xmatrix=[0.838692038495      0.34853455818      0.34853455818|  0.34853455818     0.838692038495      0.34853455818|  0.34853455818      0.34853455818     0.838692038494|] Cmatrix=[0                  0                  0| 0                  0                  0| 0                  0                  0|]
New Line.03551308_03551308a Phases=2 bus1=03551308.1.3 bus2=03551308a.1.3 Units=km Length=0.003048 Rmatrix=[ 0.124562554681    0.0376202974628| 0.0376202974628     0.124562554681|] Xmatrix=[ 0.61209536308     0.234470691164| 0.234470691164      0.61209536308|] Cmatrix=[0                  0| 0                  0|]
New Line.03551314_03551315 Phases=3 bus1=03551314.1.2.3 bus2=03551315.1.2.3 Units=km Length=0.09656064 Rmatrix=[ 1.08223972003     0.138998250219     0.138998250219| 0.138998250219      1.08223972003     0.138998250219| 0.138998250219     0.138998250219      1.08223972004|] Xmatrix=[0.838692038495      0.34853455818      0.34853455818|  0.34853455818     0.838692038495      0.34853455818|  0.34853455818      0.34853455818     0.838692038495|] Cmatrix=[0                  0                  0| 0                  0                  0| 0                  0                  0|]
New Line.03551314_03551367 Phases=2 bus1=03551314.2.3 bus2=03551367.2.3 Units=km Length=0.05967984 Rmatrix=[1.63582677165      0.13845144357| 0.13845144357      1.63582677165|] Xmatrix=[0.902559055119      0.39468503937|  0.39468503937     0.902559055119|] Cmatrix=[0                  0| 0                  0|]
New Line.03551308a_03551309 Phases=2 bus1=03551308a.1.3 bus2=03551309.1.3 Units=km Length=0.05099304 Rmatrix=[ 1.08223972003     0.138998250219| 0.138998250219      1.08223972004|] Xmatrix=[0.838692038495      0.34853455818|  0.34853455818     0.838692038496|] Cmatrix=[0                  0| 0                  0|]
New Line.03551308a_03551313 Phases=2 bus1=03551308a.1.3 bus2=03551313.1.3 Units=km Length=0.05449824 Rmatrix=[ 1.14752843395     0.137029746282| 0.137029746282      1.14752843395|] Xmatrix=[0.879811898513     0.356189851269| 0.356189851269     0.879811898513|] Cmatrix=[0                  0| 0                  0|]
New Line.03551309_03551310 Phases=2 bus1=03551309.1.3 bus2=03551310.1.3 Units=km Length=0.04962144 Rmatrix=[ 1.14752843395     0.137029746282| 0.137029746282      1.14752843395|] Xmatrix=[0.879811898513     0.356189851269| 0.356189851269     0.879811898513|] Cmatrix=[0                  0| 0                  0|]
New Line.03551310_03551311 Phases=2 bus1=03551310.1.3 bus2=03551311.1.3 Units=km Length=0.05148072 Rmatrix=[ 1.14752843395     0.137029746282| 0.137029746282      1.14752843395|] Xmatrix=[0.879811898513     0.356189851269| 0.356189851269     0.879811898513|] Cmatrix=[0                  0| 0                  0|]
New Line.03551311_03551312 Phases=2 bus1=03551311.1.3 bus2=03551312.1.3 Units=km Length=0.0950976 Rmatrix=[ 1.14752843395     0.137029746282| 0.137029746282      1.14752843395|] Xmatrix=[0.879811898513     0.356189851269| 0.356189851269     0.879811898513|] Cmatrix=[0                  0| 0                  0|]
New Line.03551315_03551316 Phases=3 bus1=03551315.1.2.3 bus2=03551316.1.2.3 Units=km Length=0.13636752 Rmatrix=[ 1.08223972003     0.138998250219     0.138998250219| 0.138998250219      1.08223972003     0.138998250219| 0.138998250219     0.138998250219      1.08223972004|] Xmatrix=[0.838692038495      0.34853455818      0.34853455818|  0.34853455818     0.838692038495      0.34853455818|  0.34853455818      0.34853455818     0.838692038495|] Cmatrix=[0                  0                  0| 0                  0                  0| 0                  0                  0|]
New Line.03551367_03551367a Phases=2 bus1=03551367.2.3 bus2=03551367a.2.3 Units=km Length=0.003048 Rmatrix=[ 0.124562554681    0.0376202974628| 0.0376202974628     0.124562554681|] Xmatrix=[ 0.61209536308     0.234470691164| 0.234470691164      0.61209536308|] Cmatrix=[0                  0| 0                  0|]
New Line.03551316_03551317 Phases=3 bus1=03551316.1.2.3 bus2=03551317.1.2.3 Units=km Length=0.0643128 Rmatrix=[ 1.08223972004     0.138998250219     0.138998250219| 0.138998250219      1.08223972003     0.138998250219| 0.138998250219     0.138998250219      1.08223972003|] Xmatrix=[0.838692038495      0.34853455818      0.34853455818|  0.34853455818     0.838692038495      0.34853455818|  0.34853455818      0.34853455818     0.838692038495|] Cmatrix=[0                  0                  0| 0                  0                  0| 0                  0                  0|]
New Line.03551317_03551318 Phases=3 bus1=03551317.1.2.3 bus2=03551318.1.2.3 Units=km Length=0.1033272 Rmatrix=[  0.44083552056    0.0910979877515    0.0910979877515| 0.0910979877515      0.44083552056    0.0910979877515| 0.0910979877515    0.0910979877515      0.44083552056|] Xmatrix=[0.735017497813     0.273403324584     0.273403324584| 0.273403324584     0.735017497813     0.273403324584| 0.273403324584     0.273403324584     0.735017497813|] Cmatrix=[0                  0                  0| 0                  0                  0| 0                  0                  0|]
New Line.03551318_03551319 Phases=3 bus1=03551318.1.2.3 bus2=03551319.1.2.3 Units=km Length=0.0621792 Rmatrix=[ 1.08223972003     0.138998250219     0.138998250219| 0.138998250219      1.08223972003     0.138998250219| 0.138998250219     0.138998250219      1.08223972003|] Xmatrix=[0.838692038495      0.34853455818      0.34853455818|  0.34853455818     0.838692038495      0.34853455818|  0.34853455818      0.34853455818     0.838692038495|] Cmatrix=[0                  0                  0| 0                  0                  0| 0                  0                  0|]
New Line.03551318_03551365 Phases=2 bus1=03551318.1.3 bus2=03551365.1.3 Units=km Length=0.0600456 Rmatrix=[ 1.08223972004     0.138998250219| 0.138998250219      1.08223972003|] Xmatrix=[0.838692038496      0.34853455818|  0.34853455818     0.838692038496|] Cmatrix=[0                  0| 0                  0|]
New Line.03551319_03551320 Phases=3 bus1=03551319.1.2.3 bus2=03551320.1.2.3 Units=km Length=0.07266432 Rmatrix=[ 1.08223972003     0.138998250219     0.138998250219| 0.138998250219      1.08223972004     0.138998250219| 0.138998250219     0.138998250219      1.08223972003|] Xmatrix=[0.838692038495      0.34853455818      0.34853455818|  0.34853455818     0.838692038495      0.34853455818|  0.34853455818      0.34853455818     0.838692038495|] Cmatrix=[0                  0                  0| 0                  0                  0| 0                  0                  0|]
New Line.03551365_03551366 Phases=2 bus1=03551365.1.3 bus2=03551366.1.3 Units=km Length=0.003048 Rmatrix=[ 1.08223972004     0.138998250219| 0.138998250219      1.08223972003|] Xmatrix=[0.838692038495      0.34853455818|  0.34853455818     0.838692038495|] Cmatrix=[0                  0| 0                  0|]
New Line.03551320_03551321 Phases=3 bus1=03551320.1.2.3 bus2=03551321.1.2.3 Units=km Length=0.06769608 Rmatrix=[ 1.08223972003     0.138998250219     0.138998250219| 0.138998250219      1.08223972004     0.138998250219| 0.138998250219     0.138998250219      1.08223972004|] Xmatrix=[0.838692038495      0.34853455818      0.34853455818|  0.34853455818     0.838692038495      0.34853455818|  0.34853455818      0.34853455818     0.838692038495|] Cmatrix=[0                  0                  0| 0                  0                  0| 0                  0                  0|]
New Line.03551321_03551322 Phases=3 bus1=03551321.1.2.3 bus2=03551322.1.2.3 Units=km Length=0.07687056 Rmatrix=[ 1.08223972003     0.138998250219     0.138998250219| 0.138998250219      1.08223972004     0.138998250219| 0.138998250219     0.138998250219      1.08223972004|] Xmatrix=[0.838692038495      0.34853455818      0.34853455818|  0.34853455818     0.838692038495      0.34853455818|  0.34853455818      0.34853455818     0.838692038495|] Cmatrix=[0                  0                  0| 0                  0                  0| 0                  0                  0|]
New Line.03551322_03551323 Phases=3 bus1=03551322.1.2.3 bus2=03551323.1.2.3 Units=km Length=0.06601968 Rmatrix=[ 1.08223972003     0.138998250219     0.138998250219| 0.138998250219      1.08223972004     0.138998250219| 0.138998250219     0.138998250219      1.08223972003|] Xmatrix=[0.838692038495      0.34853455818      0.34853455818|  0.34853455818     0.838692038495      0.34853455818|  0.34853455818      0.34853455818     0.838692038495|] Cmatrix=[0                  0                  0| 0                  0                  0| 0                  0                  0|]
New Line.03551323_03551324 Phases=3 bus1=03551323.1.2.3 bus2=03551324.1.2.3 Units=km Length=0.04809744 Rmatrix=[ 1.08223972004     0.138998250219     0.138998250219| 0.138998250219      1.08223972003     0.138998250219| 0.138998250219     0.138998250219      1.08223972003|] Xmatrix=[0.838692038495      0.34853455818      0.34853455818|  0.34853455818     0.838692038495      0.34853455818|  0.34853455818      0.34853455818     0.838692038495|] Cmatrix=[0                  0                  0| 0                  0                  0| 0                  0                  0|]
New Line.03551323_03551326 Phases=2 bus1=03551323.1.2 bus2=03551326.1.2 Units=km Length=0.0643128 Rmatrix=[1.63582677165      0.13845144357| 0.13845144357      1.63582677165|] Xmatrix=[0.902559055118      0.39468503937|  0.39468503937     0.902559055118|] Cmatrix=[0                  0| 0                  0|]
New Line.03551323_03551348 Phases=2 bus1=03551323.2.3 bus2=03551348.2.3 Units=km Length=0.03544824 Rmatrix=[1.63582677165      0.13845144357| 0.13845144357      1.63582677165|] Xmatrix=[0.902559055118      0.39468503937|  0.39468503937     0.902559055118|] Cmatrix=[0                  0| 0                  0|]
New Line.03551324_03551325 Phases=3 bus1=03551324.1.2.3 bus2=03551325.1.2.3 Units=km Length=0.22424136 Rmatrix=[ 1.08223972003     0.138998250219     0.138998250219| 0.138998250219      1.08223972004     0.138998250219| 0.138998250219     0.138998250219      1.08223972003|] Xmatrix=[0.838692038495      0.34853455818      0.34853455818|  0.34853455818     0.838692038495      0.34853455818|  0.34853455818      0.34853455818     0.838692038495|] Cmatrix=[0                  0                  0| 0                  0                  0| 0                  0                  0|]
New Line.03551326_03551327 Phases=2 bus1=03551326.1.2 bus2=03551327.1.2 Units=km Length=0.0522732 Rmatrix=[ 1.08223972004     0.138998250219| 0.138998250219      1.08223972003|] Xmatrix=[0.838692038494     0.348534558181| 0.348534558181     0.838692038495|] Cmatrix=[0                  0| 0                  0|]
New Line.03551348_03551349 Phases=2 bus1=03551348.2.3 bus2=03551349.2.3 Units=km Length=0.0621792 Rmatrix=[1.63582677165      0.13845144357| 0.13845144357      1.63582677165|] Xmatrix=[0.902559055118      0.39468503937|  0.39468503937     0.902559055118|] Cmatrix=[0                  0| 0                  0|]
New Line.03551327_03551333 Phases=2 bus1=03551327.1.2 bus2=03551333.1.2 Units=km Length=0.07562088 Rmatrix=[ 1.08223972003     0.138998250219| 0.138998250219      1.08223972003|] Xmatrix=[0.838692038493      0.34853455818|  0.34853455818     0.838692038495|] Cmatrix=[0                  0| 0                  0|]
New Line.03551327_03551328 Phases=1 bus1=03551327.1 bus2=03551328.1 Units=km Length=0.003048 Rmatrix=0.086942257 Xmatrix=0.37762467 Cmatrix=0
New Line.03551333_03551334 Phases=2 bus1=03551333.1.2 bus2=03551334.1.2 Units=km Length=0.0124968 Rmatrix=[ 1.08223972004     0.138998250219| 0.138998250219      1.08223972004|] Xmatrix=[0.838692038495      0.34853455818|  0.34853455818     0.838692038495|] Cmatrix=[0                  0| 0                  0|]
New Line.03551333_03551335 Phases=2 bus1=03551333.1.2 bus2=03551335.1.2 Units=km Length=0.0451104 Rmatrix=[ 1.14752843395     0.137029746282| 0.137029746282      1.14752843395|] Xmatrix=[0.879811898512     0.356189851268| 0.356189851268     0.879811898513|] Cmatrix=[0                  0| 0                  0|]
New Line.03551333_03551346 Phases=2 bus1=03551333.1.2 bus2=03551346.1.2 Units=km Length=0.03179064 Rmatrix=[ 1.14752843395     0.137029746282| 0.137029746282      1.14752843395|] Xmatrix=[0.879811898513     0.356189851269| 0.356189851269     0.879811898513|] Cmatrix=[0                  0| 0                  0|]
New Line.03551328a_03551329 Phases=1 bus1=03551328a.1 bus2=03551329.1 Units=km Length=0.0292608 Rmatrix=0.59350394 Xmatrix=0.47276903 Cmatrix=0
New Line.03551329_03551330 Phases=1 bus1=03551329.1 bus2=03551330.1 Units=km Length=0.0874776 Rmatrix=0.59350394 Xmatrix=0.47276903 Cmatrix=0
New Line.03551330_03551331 Phases=1 bus1=03551330.1 bus2=03551331.1 Units=km Length=0.1075944 Rmatrix=0.59350394 Xmatrix=0.47276903 Cmatrix=0
New Line.03551331_03551332 Phases=1 bus1=03551331.1 bus2=03551332.1 Units=km Length=0.003048 Rmatrix=0.59350394 Xmatrix=0.47276903 Cmatrix=0
New Line.03551335_03551336 Phases=2 bus1=03551335.1.2 bus2=03551336.1.2 Units=km Length=0.03834384 Rmatrix=[ 1.14752843395     0.137029746282| 0.137029746282      1.14752843395|] Xmatrix=[0.879811898512     0.356189851269| 0.356189851269     0.879811898513|] Cmatrix=[0                  0| 0                  0|]
New Line.03551335_03551345 Phases=2 bus1=03551335.1.2 bus2=03551345.1.2 Units=km Length=0.0286512 Rmatrix=[ 1.14752843395     0.137029746282| 0.137029746282      1.14752843395|] Xmatrix=[0.879811898513     0.356189851269| 0.356189851269     0.879811898513|] Cmatrix=[0                  0| 0                  0|]
New Line.03551346_03551347 Phases=2 bus1=03551346.1.2 bus2=03551347.1.2 Units=km Length=0.0585216 Rmatrix=[ 1.14752843395     0.137029746282| 0.137029746282      1.14752843395|] Xmatrix=[0.879811898513     0.356189851269| 0.356189851269     0.879811898513|] Cmatrix=[0                  0| 0                  0|]
New Line.03551336_03551337 Phases=2 bus1=03551336.1.2 bus2=03551337.1.2 Units=km Length=0.01298448 Rmatrix=[ 1.14752843394     0.137029746282| 0.137029746282      1.14752843395|] Xmatrix=[0.879811898511     0.356189851269| 0.356189851269     0.879811898513|] Cmatrix=[0                  0| 0                  0|]
New Line.03551336_03551339 Phases=2 bus1=03551336.1.2 bus2=03551339.1.2 Units=km Length=0.08766048 Rmatrix=[ 1.14752843395     0.137029746282| 0.137029746282      1.14752843395|] Xmatrix=[0.879811898513     0.356189851269| 0.356189851269     0.879811898513|] Cmatrix=[0                  0| 0                  0|]
New Line.03551336_03551342 Phases=2 bus1=03551336.1.2 bus2=03551342.1.2 Units=km Length=0.028956 Rmatrix=[ 1.14752843395     0.137029746282| 0.137029746282      1.14752843395|] Xmatrix=[0.879811898513     0.356189851269| 0.356189851269     0.879811898513|] Cmatrix=[0                  0| 0                  0|]
New Line.03551337_03551337a Phases=2 bus1=03551337.1.2 bus2=03551337a.1.2 Units=km Length=0.003048 Rmatrix=[ 0.124562554681    0.0376202974628| 0.0376202974628     0.124562554681|] Xmatrix=[0.612095363079     0.234470691164| 0.234470691164      0.61209536308|] Cmatrix=[0                  0| 0                  0|]
New Line.03551339_03551340 Phases=2 bus1=03551339.1.2 bus2=03551340.1.2 Units=km Length=0.05117592 Rmatrix=[ 1.14752843395     0.137029746282| 0.137029746282      1.14752843395|] Xmatrix=[0.879811898513     0.356189851269| 0.356189851269     0.879811898513|] Cmatrix=[0                  0| 0                  0|]
New Line.03551342_03551343 Phases=2 bus1=03551342.1.2 bus2=03551343.1.2 Units=km Length=0.1007364 Rmatrix=[ 1.14752843395     0.137029746282| 0.137029746282      1.14752843394|] Xmatrix=[0.879811898512     0.356189851269| 0.356189851269     0.879811898512|] Cmatrix=[0                  0| 0                  0|]
New Line.03551337a_03551338 Phases=2 bus1=03551337a.1.2 bus2=03551338.1.2 Units=km Length=0.094488 Rmatrix=[0.715441819773     0.121937882765| 0.121937882765     0.715441819773|] Xmatrix=[0.777996500437     0.305227471566| 0.305227471566     0.777996500438|] Cmatrix=[0                  0| 0                  0|]
New Line.03551340_03551341 Phases=2 bus1=03551340.1.2 bus2=03551341.1.2 Units=km Length=0.05824728 Rmatrix=[ 1.14752843395     0.137029746282| 0.137029746282      1.14752843395|] Xmatrix=[0.879811898513     0.356189851269| 0.356189851269     0.879811898513|] Cmatrix=[0                  0| 0                  0|]
New Line.03551343_03551344 Phases=2 bus1=03551343.1.2 bus2=03551344.1.2 Units=km Length=0.003048 Rmatrix=[ 1.14752843395     0.137029746282| 0.137029746282      1.14752843395|] Xmatrix=[0.879811898513     0.356189851269| 0.356189851269     0.879811898513|] Cmatrix=[0                  0| 0                  0|]
New Line.03551349_03551350 Phases=2 bus1=03551349.2.3 bus2=03551350.2.3 Units=km Length=0.07748016 Rmatrix=[1.63582677165      0.13845144357| 0.13845144357      1.63582677165|] Xmatrix=[0.902559055117      0.39468503937|  0.39468503937     0.902559055117|] Cmatrix=[0                  0| 0                  0|]
New Line.03551350_03551356 Phases=2 bus1=03551350.2.3 bus2=03551356.2.3 Units=km Length=0.06763512 Rmatrix=[ 1.63582677166     0.138451443569| 0.138451443569      1.63582677165|] Xmatrix=[0.902559055119     0.394685039369| 0.394685039369     0.902559055117|] Cmatrix=[0                  0| 0                  0|]
New Line.03551350_03551350a Phases=2 bus1=03551350.2.3 bus2=03551350a.2.3 Units=km Length=0.003048 Rmatrix=[ 0.124562554681    0.0376202974628| 0.0376202974628     0.124562554681|] Xmatrix=[ 0.61209536308     0.234470691164| 0.234470691164     0.612095363079|] Cmatrix=[0                  0| 0                  0|]
New Line.03551356_03551357 Phases=2 bus1=03551356.2.3 bus2=03551357.2.3 Units=km Length=0.03441192 Rmatrix=[1.63582677165      0.13845144357| 0.13845144357      1.63582677165|] Xmatrix=[0.902559055118      0.39468503937|  0.39468503937     0.902559055118|] Cmatrix=[0                  0| 0                  0|]