Clear

New Circuit.ucsdMicrogrid bus1=SDG&E_69KV basekv=69 pu=1 angle=0 frequency=60 MVAsc3=20000 MVAsc1=20000 x1r1=8.6 x0r0=8.9 BaseFreq=60
New Linecode.1_0_Cu R1=0.26903 X1=0.10827 R0=0.42979 X0=0.27231 Units=km
New Linecode.2_0_Cu R1=0.21654 X1=0.10499 R0=0.34121 X0=0.26903 Units=km
New Linecode.3_0_Cu R1=0.17224 X1=0.098425 R0=0.27067 X0=0.26247 Units=km
New Linecode.4_0_Cu R1=0.13451 X1=0.098425 R0=0.21326 X0=0.24934 Units=km
New Linecode.6_Cu R1=726.2139 X1=97.5394 R0=2288.6155 X0=240.2231 Units=km
New Linecode.10_Cu R1=1680.2822 X1=121.6207 R0=5295.4724 X0=299.4751 Units=km
New Linecode.250_Cu R1=1.1549 X1=1.6503 R0=7.0341 X0=6.6175 Units=km
New Linecode.350_Cu R1=0.69554 X1=0.74803 R0=1.1089 X0=1.8963 Units=km
New Linecode.500_Cu R1=0.059055 X1=0.088583 R0=0.095144 X0=0.2395 Units=km
New Linecode.600_Cu R1=0.02395 X1=0.13123 R0=0.14895 X0=0.69554 Units=km
New Linecode.750_Cu R1=0.042651 X1=0.082021 R0=0.068898 X0=0.21326 Units=km
New Line.CBL_0581 LineCode=500_Cu bus1=E_7_10_2_11 bus2=E_1_9_1_11 Units=m Length=99.06
New Line.CBL_0583 LineCode=600_Cu bus1=SS23_14 bus2=SS_23_WC Units=m Length=0.3048
New Line.CBL_0726 LineCode=750_Cu bus1=SS_126 bus2=BUS_0861 Units=m Length=0.3048
New Line.CBL_0727 LineCode=750_Cu bus1=SS_126 bus2=BUS_0862 Units=m Length=0.3048
New Line.CBL_0728 LineCode=750_Cu bus1=SS_127 bus2=BUS_0865 Units=m Length=0.3048
New Line.CBL_0729 LineCode=750_Cu bus1=SS_127 bus2=BUS_0866 Units=m Length=0.3048
New Line.CBL_E_4_1_404 LineCode=750_Cu bus1=E_4_404 bus2=E_4_1_404 Units=m Length=57.912
New Line.CBL_E_4_1_405 LineCode=750_Cu bus1=E_4_405 bus2=E_4_1_405 Units=m Length=57.912
New Line.CBL_E_4_1_409 LineCode=500_Cu bus1=E_4_409 bus2=E_4_1_409 Units=m Length=61.2648
New Line.CBL_E_4_2_404 LineCode=750_Cu bus1=E_4_1_404 bus2=E_4_2_404 Units=m Length=67.9704
New Line.CBL_E_4_2_405 LineCode=750_Cu bus1=E_4_1_405 bus2=E_4_2_405 Units=m Length=67.9704
New Line.CBL_E_4_2_409 LineCode=500_Cu bus1=E_4_1_409 bus2=E_4_2_409 Units=m Length=74.676
New Line.CBL_E_4_404 LineCode=750_Cu bus1=MCSS_MB bus2=E_4_404 Units=m Length=38.1
New Line.CBL_E_4_405 LineCode=750_Cu bus1=MCSS_MA bus2=E_4_405 Units=m Length=30.48
New Line.CBL_E_4_407 LineCode=750_Cu bus1=MCSS_MA bus2=E_4_407 Units=m Length=30.48
New Line.CBL_E_4_409 LineCode=500_Cu bus1=MCSS_MA bus2=E_4_409 Units=m Length=33.528
New Line.CBL_E_4_413 LineCode=500_Cu bus1=MCSS_MA bus2=E_4_413 Units=m Length=64.008
New Line.CBL_E_4_9_413 LineCode=750_Cu bus1=E_5_8_1_413 bus2=E_4_9_413 Units=m Length=152.4
New Line.CBL_E_5_3_1_SS_138 LineCode=500_Cu bus1=E_5_3_SS_138 bus2=E_5_3_1_SS_138 Units=m Length=6.096
New Line.CBL_E_5_3_412 LineCode=500_Cu bus1=E_5_1_412 bus2=E_5_3_412 Units=m Length=265.176
New Line.CBL_E_5_3_437 LineCode=500_Cu bus1=E_5_1_437 bus2=E_5_3_437 Units=m Length=265.176
New Line.CBL_E_5_3_SS_138 LineCode=500_Cu bus1=SS_51_EC bus2=E_5_3_SS_138 Units=m Length=15.24
New Line.CBL_E_5_4_2_404 LineCode=750_Cu bus1=E_4_2_404 bus2=E_5_4_2_404 Units=m Length=38.1
New Line.CBL_E_5_4_2_405 LineCode=750_Cu bus1=E_4_2_405 bus2=E_5_4_2_405 Units=m Length=38.1
New Line.CBL_E_5_4_406 LineCode=750_Cu bus1=E_4_406 bus2=E_5_4_406 Units=m Length=62.484
New Line.CBL_E_5_4_407 LineCode=750_Cu bus1=E_4_407 bus2=E_5_4_407 Units=m Length=62.484
New Line.CBL_E_5_4_413 LineCode=500_Cu bus1=E_4_413 bus2=E_5_4_413 Units=m Length=62.484
New Line.CBL_E_5_4_436 LineCode=500_Cu bus1=E_4_436 bus2=E_5_4_436 Units=m Length=62.484
New Line.CBL_E_5_7_413 LineCode=750_Cu bus1=E_5_4_413 bus2=E_5_7_413 Units=m Length=108.5088
New Line.CBL_E_5_8_1_413 LineCode=750_Cu bus1=E_5_7_413 bus2=E_5_8_1_413 Units=m Length=135.636
New Line.CBL_E_6A_5_EC_12 LineCode=750_Cu bus1=E_6A_2_EC_12 bus2=E_6A_5_EC_12 Units=m Length=127.1016
New Line.CBL_E_6A_5_EC_25 LineCode=750_Cu bus1=E_6A_2_EC_25 bus2=E_6A_5_EC_25 Units=m Length=127.1016
New Line.CBL_E_6A_5_EC_37 LineCode=750_Cu bus1=E_5_1_37 bus2=E_6A_5_EC_37 Units=m Length=129.2352
New Line.CBL_E_6A_6_EC_12 LineCode=750_Cu bus1=E_6A_5_EC_12 bus2=E_6A_6_EC_12 Units=m Length=132.588
New Line.CBL_E_6A_6_EC_25 LineCode=750_Cu bus1=E_6A_5_EC_25 bus2=E_6A_6_EC_25 Units=m Length=132.588
New Line.CBL_E_6A_6_EC_37 LineCode=750_Cu bus1=E_6A_5_EC_37 bus2=E_6A_6_EC_37 Units=m Length=132.588
New Line.CBL_EMH_E_4_406 LineCode=750_Cu bus1=MCSS_MB bus2=E_4_406 Units=m Length=38.1
New Line.CBL_EMH_E_4_436 LineCode=500_Cu bus1=MCSS_MC bus2=E_4_436 Units=m Length=48.768
New Line.CBL_EMH_E_5_1_412 LineCode=500_Cu bus1=E_6A_5_412 bus2=E_5_1_412 Units=m Length=129.2352
New Line.CBL_EMH_E_5_1A_437 LineCode=500_Cu bus1=E_6A_5_MA_437 bus2=E_5_1_437 Units=m Length=129.2352
New Line.CBL_EMH_E_5_8_1_406 LineCode=750_Cu bus1=E_5_7_406 bus2=E_5_8_1_406 Units=m Length=135.636
New Line.CBL_EMH_E_5_8_1_407 LineCode=750_Cu bus1=E_5_7_407 bus2=E_5_8_1_407 Units=m Length=135.636
New Line.CBL_EMH_E_6A_5_412 LineCode=500_Cu bus1=E_6A_6_412 bus2=E_6A_5_412 Units=m Length=132.588
New Line.CBL_EMH_E_6A_5_437 LineCode=500_Cu bus1=E_6A_6_MA_437 bus2=E_6A_5_MA_437 Units=m Length=132.588
New Line.CBl_EMH_E_6A_6_437 LineCode=500_Cu bus1=MCSS_MC bus2=E_6A_6_MA_437 Units=m Length=28.956
New Line.CBL_EMH_E6A_6_412 LineCode=500_Cu bus1=MCSS_MB bus2=E_6A_6_412 Units=m Length=36.576
New Line.CBL_MCSS_MA LineCode=750_Cu bus1=E_6A_6_EC_25 bus2=MCSS_MA Units=m Length=38.1
New Line.CBL_MCSS_MB LineCode=750_Cu bus1=E_6A_6_EC_12 bus2=MCSS_MB Units=m Length=30.48
New Line.CBL_MCSS_MC LineCode=750_Cu bus1=E_6A_6_EC_37 bus2=MCSS_MC Units=m Length=24.384
New Line.CBL_SS_102_406 LineCode=750_Cu bus1=E_5_8_1_406 bus2=SS_102_EC Units=m Length=81.0768
New Line.CBL_SS_103_407 LineCode=750_Cu bus1=E_5_8_1_407 bus2=SS_103_EC Units=m Length=81.0768
New Line.CBL_SS_114_EC LineCode=750_Cu bus1=E_5_4_2_405 bus2=SS_114_EC Units=m Length=68.58
New Line.CBL_SS_115_EC LineCode=750_Cu bus1=E_5_4_2_404 bus2=SS_115_EC Units=m Length=68.58
New Line.CBL_SS_125_MCSS_409 LineCode=500_Cu bus1=E_4_2_409 bus2=SS_125_MCSS Units=m Length=20.1168
New Line.CBL_SS_126_407 LineCode=750_Cu bus1=E_5_8_1_407 bus2=SS_126 Units=m Length=88.392
New Line.CBL_SS_127_406 LineCode=750_Cu bus1=E_5_8_1_406 bus2=SS_127 Units=m Length=88.392
New Line.CBL_SS_130 LineCode=750_Cu bus1=E_4_2_405 bus2=SS_130 Units=m Length=524.5608
New Line.CBL_SS_131 LineCode=750_Cu bus1=E_4_2_404 bus2=SS_131 Units=m Length=525.78
New Line.CBL_SS_138 LineCode=500_Cu bus1=E_5_3_2_SS_138 bus2=SS_138 Units=m Length=15.24
New Line.CBL_T_304_EC_PS LineCode=500_Cu bus1=SS_125_MCSS bus2=BUS_PD_T_304 Units=m Length=7.62
New Line.CBL_T_JMC_TEMP_PWR LineCode=500_Cu bus1=SS_125_MCSS bus2=BUS_JMC_TEMP_PWR_LI_SW Units=m Length=426.72
New Line.CBL_T_JMC_TEMP_PWR_PRI LineCode=4_0_Cu bus1=BUS_JMC_TEMP_PWR_LI_SW bus2=BUS_JMC_TEMP_PWR_PRI Units=m Length=3.6576
New Line.CBL_XF_CPT_1A LineCode=1_0_Cu bus1=MCSS_MA bus2=BUS_XF_CPT_1A Units=m Length=27.7368
New Line.CBL_XF_CPT_1B LineCode=1_0_Cu bus1=MCSS_MB bus2=BUS_XF_CPT_1B Units=m Length=30.48
New Line.CBL_XF_CPT_1C LineCode=2_0_Cu bus1=MCSS_MC bus2=BUS_XF_CPT_1C Units=m Length=24.384
New Line.CBL_XF_CPT_C LineCode=2_0_Cu bus1=EAST_CAMPUS_1 bus2=BUS_XF_CPT_C_PRI Units=m Length=16.764
New Line.CBL_XF_CPT_E LineCode=2_0_Cu bus1=EAST_CAMPUS_1 bus2=BUS_XF_CPT_E_PRI Units=m Length=15.24
New Line.CBL_XF_CPT_W LineCode=2_0_Cu bus1=EAST_CAMPUS_1 bus2=BUS_XF_CPT_W_PRI Units=m Length=18.288
New Line.F_1SG1 LineCode=500_Cu bus1=SG1_BUS bus2=PSB Units=m Length=85.344
New Line.F_3RD_C_S166 LineCode=2_0_Cu bus1=E_7_19_4 bus2=3RD_C_S166_PRI Units=m Length=71.628
New Line.F_3RD_C_S206 LineCode=500_Cu bus1=E_7_19_1 bus2=3RD_C_S206PRI Units=m Length=88.392
New Line.F_3RD_C_S207 LineCode=500_Cu bus1=3RD_C_S206PRI bus2=T_207_PRI Units=m Length=91.44
New Line.F_ALEX_SP LineCode=4_0_Cu bus1=E_7_26_1 bus2=ALEX_SP_PRI Units=m Length=79.248
New Line.F_ARGO_BLAKE LineCode=500_Cu bus1=SS_35_RC bus2=T_342_PRI Units=m Length=41.148
New Line.F_ATHL_FIELD LineCode=250_Cu bus1=E_7_23_1 bus2=T_242_PRI Units=m Length=167.64
New Line.F_B_BOX_REST LineCode=500_Cu bus1=SS_88_RC bus2=B_BOX_REST_PRI Units=m Length=85.344
New Line.F_B_SCI_PB3_102 LineCode=500_Cu bus1=PB_1_102 bus2=B_SCI_PB3_102 Units=m Length=47.244
New Line.F_B_SCI_PB3_105 LineCode=500_Cu bus1=PB_1_105 bus2=B_SCI_PB3_105 Units=m Length=47.244
New Line.F_B_SCI_PB4_102 LineCode=500_Cu bus1=B_SCI_PB3_102 bus2=B_SCI_PB4_102 Units=m Length=51.816
New Line.F_B_SCI_PB4_105 LineCode=500_Cu bus1=B_SCI_PB3_105 bus2=B_SCI_PB4_105 Units=m Length=51.816
New Line.F_BIO_MED LineCode=500_Cu bus1=SS_95_SOM bus2=PRI_BIO_MED Units=m Length=38.1
New Line.F_BIRCH_AQ LineCode=4_0_Cu bus1=SS_64_SIO bus2=BUS_T_223_PRI Units=m Length=76.2
New Line.F_BLACK_BOX LineCode=500_Cu bus1=SS_88_RC bus2=BLACK_BOX_PRI Units=m Length=30.48
New Line.F_BLDG_3C_12 LineCode=500_Cu bus1=BLDG_3B_12KV bus2=BLDG_3C_12KV Units=m Length=42.672
New Line.F_BLDG_3C_15 LineCode=500_Cu bus1=BLDG_3B_15 bus2=BLDG3C_15_12KV Units=m Length=42.672
New Line.F_BONNER_LCA LineCode=2_0_Cu bus1=SS_36_RC bus2=SW_T_119 Units=m Length=10.668
New Line.F_BONNER_LCB LineCode=2_0_Cu bus1=SS_36_RC bus2=SW_T_120 Units=m Length=13.716
New Line.F_BONNER_LCC LineCode=2_0_Cu bus1=SS_36_RC bus2=SW_T_121_1 Units=m Length=76.2
New Line.F_BRAIN_IMAGE LineCode=500_Cu bus1=SS_95_SOM bus2=PRI_BIO_MED_1 Units=m Length=36.576
New Line.F_BSB_MTF_TUN_102 LineCode=500_Cu bus1=E_1_2_102 bus2=BSB_MTF_TUN_102 Units=m Length=67.056
New Line.F_BSB_MTF_TUN_105 LineCode=500_Cu bus1=E_1_2_105 bus2=BSB_MTF_TUN_105 Units=m Length=67.056
New Line.F_BUS_NC14 LineCode=500_Cu bus1=BUS_NC_14 bus2=N_CAMPUS_B Units=m Length=0.9144
New Line.F_BUS_NC15 LineCode=500_Cu bus1=E_7_C_NC3 bus2=N_CAMPUS_C Units=m Length=152.4
New Line.F_BUS_NC17 LineCode=500_Cu bus1=E_7_C_NC2 bus2=N_CAMPUS_B Units=m Length=152.4
New Line.F_BUS_NC18 LineCode=500_Cu bus1=BUS_NC17 bus2=N_CAMPUS_A Units=m Length=0.9144
New Line.F_BUS_NC19 LineCode=500_Cu bus1=E_7_B_NC3 bus2=E_7_C_NC3 Units=m Length=96.012
New Line.F_C_LIB_S182 LineCode=500_Cu bus1=E_1_6_8 bus2=S182_8 Units=m Length=45.72
New Line.F_C_LIB_S183 LineCode=500_Cu bus1=S182_8 bus2=S183_8 Units=m Length=0.9144
New Line.F_C_LIB_S184 LineCode=500_Cu bus1=S183_8 bus2=C_LIB_S184_PRI Units=m Length=0.3048
New Line.F_C_UNION LineCode=500_Cu bus1=SS_50_SC bus2=T_253_PRI Units=m Length=176.784
New Line.F_CB_52_TB LineCode=250_Cu bus1=BUS_52_TB bus2=MSG Units=m Length=15.24
New Line.F_CH_1 LineCode=500_Cu bus1=SUB_1A bus2=BUS_CH_1 Units=m Length=9.144
New Line.F_CH_2 LineCode=500_Cu bus1=SUB_1A bus2=BUS_CH_2 Units=m Length=9.144
New Line.F_CLASSROOM LineCode=500_Cu bus1=SS_28_SIO bus2=BUS_T_238_PRI Units=m Length=6.096
New Line.F_CLIN_SCI_102 LineCode=500_Cu bus1=E_1_2_2_1_102 bus2=CLIN_SCI_12KV Units=m Length=164.592
New Line.F_CT34_PSB LineCode=500_Cu bus1=PSB bus2=SW_T_087 Units=m Length=45.72
New Line.F_E_1_0_1_104 LineCode=500_Cu bus1=E_1_0_104 bus2=E_1_0_1_104 Units=m Length=124.968
New Line.F_E_1_0_1_107 LineCode=500_Cu bus1=E_1_0_107 bus2=E_1_0_1_107 Units=m Length=124.968
New Line.F_E_1_0_104 LineCode=500_Cu bus1=REVELLE_2 bus2=E_1_0_104 Units=m Length=106.68
New Line.F_E_1_0_107 LineCode=500_Cu bus1=REVELLE_1 bus2=E_1_0_107 Units=m Length=106.68
New Line.F_E_1_0_1A_104 LineCode=500_Cu bus1=E_1_0_1_104 bus2=E_1_0_1A_104 Units=m Length=82.296
New Line.F_E_1_0_1A_107 LineCode=500_Cu bus1=E_1_0_1_107 bus2=E_1_0_1A_107 Units=m Length=82.296
New Line.F_E_1_0_2_107 LineCode=500_Cu bus1=E_1_0_1A_107 bus2=E_1_0_2_107 Units=m Length=121.92
New Line.F_E_1_0_2A_104 LineCode=500_Cu bus1=E_1_0_1A_104 bus2=E_1_0_2A_104 Units=m Length=134.112
New Line.F_E_1_0_2A_107 LineCode=500_Cu bus1=E_1_0_1A_107 bus2=E_1_0_2A_107 Units=m Length=134.112
New Line.F_E_1_0_2B_104 LineCode=500_Cu bus1=E_1_0_2A_104 bus2=E_1_0_2B_104 Units=m Length=45.72
New Line.F_E_1_0_2B_107__1 LineCode=500_Cu bus1=E_1_0_2A_107 bus2=E_1_0_2B_107 Units=m Length=45.72
New Line.F_E_1_0_2B_107__2 LineCode=500_Cu bus1=E_1_0_2B_107 bus2=SS_136 Units=m Length=45.72
New Line.F_E_1_0_3A_104 LineCode=500_Cu bus1=E_1_0_2A_104 bus2=E_1_0_3A_104 Units=m Length=45.72
New Line.F_E_1_0_3A_107 LineCode=500_Cu bus1=E_1_0_2A_107 bus2=E_1_0_3A_107 Units=m Length=45.72
New Line.F_E_1_1_102 LineCode=500_Cu bus1=E_1_2_0_102 bus2=E_1_1_102 Units=m Length=115.824
New Line.F_E_1_1_105 LineCode=500_Cu bus1=E_1_2_0_105 bus2=E_1_1_105 Units=m Length=115.824
New Line.F_E_1_1_19 LineCode=500_Cu bus1=E_1_2_0_19 bus2=E_1_1_19 Units=m Length=115.824
New Line.F_E_1_1_4 LineCode=500_Cu bus1=E_1_2_0_4 bus2=E_1_1_4 Units=m Length=115.824
New Line.F_E_1_1_EG LineCode=250_Cu bus1=E_2_1_EG bus2=E_1_1_EG Units=m Length=109.728
New Line.F_E_1_10_11 LineCode=500_Cu bus1=E_1_10_11 bus2=E_1_11_11 Units=m Length=68.58
New Line.F_E_1_10_8 LineCode=500_Cu bus1=E_1_10_8 bus2=E_1_11_8 Units=m Length=68.58
New Line.F_E_1_11_11 LineCode=500_Cu bus1=E_1_11_11 bus2=E_1_12_11 Units=m Length=91.44
New Line.F_E_1_11_8 LineCode=500_Cu bus1=E_1_11_8 bus2=E_1_12_8 Units=m Length=91.44
New Line.F_E_1_19 LineCode=500_Cu bus1=E_7_17_1_338 bus2=SS_120_ERC Units=m Length=129.54
New Line.F_E_1_2_0_102 LineCode=500_Cu bus1=E_1_2_102 bus2=E_1_2_0_102 Units=m Length=9.144
New Line.F_E_1_2_0_105 LineCode=500_Cu bus1=E_1_2_105 bus2=E_1_2_0_105 Units=m Length=9.144
New Line.F_E_1_2_0_19 LineCode=500_Cu bus1=E_1_2_19 bus2=E_1_2_0_19 Units=m Length=9.144
New Line.F_E_1_2_0_4 LineCode=500_Cu bus1=E_1_2_4 bus2=E_1_2_0_4 Units=m Length=9.144
New Line.F_E_1_2_1_102 LineCode=500_Cu bus1=E_1_2_102 bus2=E_1_2_1_102 Units=m Length=102.108
New Line.F_E_1_2_1_105 LineCode=500_Cu bus1=E_1_2_105 bus2=E_1_2_1_105 Units=m Length=102.108
New Line.F_E_1_2_102 LineCode=500_Cu bus1=E_1_3_102 bus2=E_1_2_102 Units=m Length=124.968
New Line.F_E_1_2_105 LineCode=500_Cu bus1=E_1_3_105 bus2=E_1_2_105 Units=m Length=124.968
New Line.F_E_1_2_19 LineCode=500_Cu bus1=E_1_3_19 bus2=E_1_2_19 Units=m Length=124.968
New Line.F_E_1_2_2_1_102 LineCode=500_Cu bus1=E_1_2_2_102 bus2=E_1_2_2_1_102 Units=m Length=3.048
New Line.F_E_1_2_2_102 LineCode=500_Cu bus1=B_SCI_PB4_102 bus2=E_1_2_2_102 Units=m Length=48.768
New Line.F_E_1_2_2_105 LineCode=500_Cu bus1=B_SCI_PB4_105 bus2=E_1_2_2_105 Units=m Length=48.768
New Line.F_E_1_2_3_105 LineCode=500_Cu bus1=E_1_2_2_105 bus2=E_1_2_3_105 Units=m Length=99.06
New Line.F_E_1_2_4 LineCode=500_Cu bus1=E_1_3_4 bus2=E_1_2_4 Units=m Length=124.968
New Line.F_E_1_2_EG LineCode=250_Cu bus1=SS_84 bus2=E_1_2_EG Units=m Length=9.144
New Line.F_E_1_20 LineCode=500_Cu bus1=SS_119_ERC bus2=E_7_17_1_307 Units=m Length=129.54
New Line.F_E_1_3_11 LineCode=500_Cu bus1=E_1_4_11 bus2=E_1_3_11 Units=m Length=123.444
New Line.F_E_1_3_19 LineCode=500_Cu bus1=E_1_3_19 bus2=E_6_16_19 Units=m Length=71.628
New Line.F_E_1_3_4 LineCode=500_Cu bus1=E_1_3_4 bus2=E_6_16_4 Units=m Length=71.628
New Line.F_E_1_3_8 LineCode=500_Cu bus1=E_1_4_8 bus2=E_1_3_8 Units=m Length=123.444
New Line.F_E_1_4_1_11 LineCode=500_Cu bus1=E_1_4_1_11 bus2=E_1_4_11 Units=m Length=77.724
New Line.F_E_1_4_1_8 LineCode=500_Cu bus1=E_1_4_1_8 bus2=E_1_4_8 Units=m Length=77.724
New Line.F_E_1_4_11 LineCode=500_Cu bus1=E_1_5_11 bus2=E_1_4_11 Units=m Length=144.78
New Line.F_E_1_4_2_11 LineCode=500_Cu bus1=E_1_4_2_11 bus2=E_1_4_1_11 Units=m Length=91.44
New Line.F_E_1_4_2_8 LineCode=500_Cu bus1=E_1_4_2_8 bus2=E_1_4_1_8 Units=m Length=91.44
New Line.F_E_1_4_3_11 LineCode=500_Cu bus1=E_1_4_3_11 bus2=E_1_4_2_11 Units=m Length=91.44
New Line.F_E_1_4_4_1_304 LineCode=500_Cu bus1=E_1_4_4_1_304 bus2=E_1_4_4_304 Units=m Length=82.296
New Line.F_E_1_4_4_1_305 LineCode=500_Cu bus1=E_1_4_4_1_305 bus2=E_1_4_4_305 Units=m Length=82.296
New Line.F_E_1_4_4_304 LineCode=500_Cu bus1=E_1_9_2_304 bus2=E_1_4_4_304 Units=m Length=109.728
New Line.F_E_1_4_4_305 LineCode=500_Cu bus1=E_1_9_2_305 bus2=E_1_4_4_305 Units=m Length=109.728
New Line.F_E_1_4_5_304 LineCode=500_Cu bus1=E_1_4_5_304 bus2=E_1_4_4_304 Units=m Length=161.544
New Line.F_E_1_4_5_305 LineCode=500_Cu bus1=E_1_4_5_305 bus2=E_1_4_4_305 Units=m Length=161.544
New Line.F_E_1_4_8 LineCode=500_Cu bus1=E_1_5_8 bus2=E_1_4_8 Units=m Length=144.78
New Line.F_E_1_5_11 LineCode=500_Cu bus1=E_1_6_11 bus2=E_1_5_11 Units=m Length=97.536
New Line.F_E_1_5_8 LineCode=500_Cu bus1=E_1_6_8 bus2=E_1_5_8 Units=m Length=97.536
New Line.F_E_1_6_11 LineCode=500_Cu bus1=E_1_7_11 bus2=E_1_6_11 Units=m Length=121.92
New Line.F_E_1_6_8 LineCode=500_Cu bus1=E_1_7_8 bus2=E_1_6_8 Units=m Length=121.92
New Line.F_E_1_7_11 LineCode=500_Cu bus1=E_1_8_11 bus2=E_1_7_11 Units=m Length=118.872
New Line.F_E_1_7_8 LineCode=500_Cu bus1=E_1_8_8 bus2=E_1_7_8 Units=m Length=118.872
New Line.F_E_1_8_11 LineCode=500_Cu bus1=E_1_9_11 bus2=E_1_8_11 Units=m Length=30.48
New Line.F_E_1_8_8 LineCode=500_Cu bus1=E_1_9_8 bus2=E_1_8_8 Units=m Length=30.48
New Line.F_E_1_9_1 LineCode=500_Cu bus1=E_1_9_8 bus2=E_1_9_1_8 Units=m Length=12.192
New Line.F_E_1_9_1_11 LineCode=500_Cu bus1=E_1_9_11 bus2=E_1_9_1_11 Units=m Length=12.192
New Line.F_E_1_9_1_8 LineCode=500_Cu bus1=E_7_10_2_8 bus2=E_1_9_1_8 Units=m Length=99.06
New Line.F_E_1_9_11 LineCode=500_Cu bus1=E_1_10_11 bus2=E_1_9_11 Units=m Length=91.44
New Line.F_E_1_9_2_11 LineCode=500_Cu bus1=E_1_9_1_11 bus2=E_1_9_2_11 Units=m Length=71.628
New Line.F_E_1_9_2_304 LineCode=500_Cu bus1=E_1_9_2_304 bus2=E_1_9_3_304 Units=m Length=109.728
New Line.F_E_1_9_2_305 LineCode=500_Cu bus1=E_1_9_2_305 bus2=E_1_9_3_305 Units=m Length=109.728
New Line.F_E_1_9_2_8 LineCode=500_Cu bus1=E_1_9_1_8 bus2=E_1_9_2_8 Units=m Length=71.628
New Line.F_E_1_9_3_304 LineCode=500_Cu bus1=E_1_9_4_304 bus2=E_1_9_3_304 Units=m Length=73.152
New Line.F_E_1_9_3_305 LineCode=500_Cu bus1=E_1_9_4_305 bus2=E_1_9_3_305 Units=m Length=73.152
New Line.F_E_1_9_4_304 LineCode=500_Cu bus1=E_1_9_4_304 bus2=E_1_9_5_304 Units=m Length=100.584
New Line.F_E_1_9_4_305 LineCode=500_Cu bus1=E_1_9_4_305 bus2=E_1_9_5_305 Units=m Length=100.584
New Line.F_E_1_9_5_304 LineCode=500_Cu bus1=E_7_C_304 bus2=E_1_9_5_304 Units=m Length=103.632
New Line.F_E_1_9_5_305 LineCode=500_Cu bus1=E_7_C_305 bus2=E_1_9_5_305 Units=m Length=103.632
New Line.F_E_1_9_8 LineCode=500_Cu bus1=E_1_10_8 bus2=E_1_9_8 Units=m Length=91.44
New Line.F_E_10_10_109 LineCode=500_Cu bus1=E_10_11_109 bus2=E_10_10_109 Units=m Length=54.864
New Line.F_E_10_10_110 LineCode=500_Cu bus1=E_10_11_110 bus2=E_10_10_110 Units=m Length=54.864
New Line.F_E_10_10_202 LineCode=4_0_Cu bus1=E_10_11_202 bus2=E_10_10_202 Units=m Length=54.864
New Line.F_E_10_10_205 LineCode=4_0_Cu bus1=E_10_11_205 bus2=E_10_10_205 Units=m Length=54.864
New Line.F_E_10_11_1_202 LineCode=4_0_Cu bus1=E_10_10_202 bus2=E_10_11_1_202 Units=m Length=96.012
New Line.F_E_10_11_1_205 LineCode=4_0_Cu bus1=E_10_10_205 bus2=E_10_11_1_205 Units=m Length=96.012
New Line.F_E_10_11_10_109 LineCode=500_Cu bus1=E_10_11_11_109 bus2=E_10_11_10_109 Units=m Length=33.528
New Line.F_E_10_11_10_110 LineCode=500_Cu bus1=E_10_11_11_110 bus2=E_10_11_10_110 Units=m Length=33.528
New Line.F_E_10_11_109 LineCode=500_Cu bus1=E_10_11_2_109 bus2=E_10_11_109 Units=m Length=94.488
New Line.F_E_10_11_11_109 LineCode=500_Cu bus1=E_10_11_12_109 bus2=E_10_11_11_109 Units=m Length=105.156
New Line.F_E_10_11_11_110 LineCode=500_Cu bus1=E_10_11_12_110 bus2=E_10_11_11_110 Units=m Length=105.156
New Line.F_E_10_11_110 LineCode=500_Cu bus1=E_10_11_2_110 bus2=E_10_11_110 Units=m Length=94.488
New Line.F_E_10_11_12_109 LineCode=500_Cu bus1=E_10_11_13_109 bus2=E_10_11_12_109 Units=m Length=120.396
New Line.F_E_10_11_12_110 LineCode=500_Cu bus1=E_10_11_13_110 bus2=E_10_11_12_110 Units=m Length=120.396
New Line.F_E_10_11_13_1_106 LineCode=500_Cu bus1=E_10_11_13_1_106 bus2=E_10_11_13_106 Units=m Length=112.776
New Line.F_E_10_11_13_1_119 LineCode=500_Cu bus1=E_10_11_13_1_119 bus2=E_10_11_13_119 Units=m Length=112.776
New Line.F_E_10_11_13_106 LineCode=500_Cu bus1=E_10_11_14_106 bus2=E_10_11_13_106 Units=m Length=149.352
New Line.F_E_10_11_13_109 LineCode=500_Cu bus1=E_10_11_14_109 bus2=E_10_11_13_109 Units=m Length=149.352
New Line.F_E_10_11_13_110 LineCode=500_Cu bus1=E_10_11_14_110 bus2=E_10_11_13_110 Units=m Length=149.352
New Line.F_E_10_11_13_119 LineCode=500_Cu bus1=E_10_11_14_119 bus2=E_10_11_13_119 Units=m Length=149.352
New Line.F_E_10_11_13_1A_106 LineCode=500_Cu bus1=E_10_11_13_106 bus2=E_10_11_13_1A_106 Units=m Length=128.016
New Line.F_E_10_11_13_1A_119 LineCode=500_Cu bus1=E_10_11_13_119 bus2=E_10_11_13_1A_119 Units=m Length=128.016
New Line.F_E_10_11_13_2_106 LineCode=500_Cu bus1=E_10_11_13_2_106 bus2=E_10_11_13_1_106 Units=m Length=114.3
New Line.F_E_10_11_13_2_119 LineCode=500_Cu bus1=E_10_11_13_2_119 bus2=E_10_11_13_1_119 Units=m Length=114.3
New Line.F_E_10_11_13_3_106 LineCode=500_Cu bus1=E_10_11_13_3_106 bus2=E_10_11_13_2_106 Units=m Length=121.92
New Line.F_E_10_11_13_3_119 LineCode=500_Cu bus1=E_10_11_13_3_119 bus2=E_10_11_13_2_119 Units=m Length=121.92
New Line.F_E_10_11_13_3A LineCode=500_Cu bus1=SS_137 bus2=E_10_11_13_3A Units=m Length=0.3048
New Line.F_E_10_11_13_4_119 LineCode=500_Cu bus1=E_10_11_13_4_119 bus2=E_10_11_13_3_119 Units=m Length=53.34
New Line.F_E_10_11_13_5_119 LineCode=500_Cu bus1=E_10_11_13_5_119 bus2=E_10_11_13_4_119 Units=m Length=76.2
New Line.F_E_10_11_14_1 LineCode=500_Cu bus1=SS_17_RC bus2=E_10_11_14_1 Units=m Length=147.828
New Line.F_E_10_11_14_106 LineCode=500_Cu bus1=E_10_11_15_106 bus2=E_10_11_14_106 Units=m Length=121.92
New Line.F_E_10_11_14_109 LineCode=500_Cu bus1=E_10_11_15_109 bus2=E_10_11_14_109 Units=m Length=121.92
New Line.F_E_10_11_14_110 LineCode=500_Cu bus1=E_10_11_15_110 bus2=E_10_11_14_110 Units=m Length=121.92
New Line.F_E_10_11_14_119 LineCode=500_Cu bus1=E_10_11_15_119 bus2=E_10_11_14_119 Units=m Length=121.92
New Line.F_E_10_11_15_106 LineCode=500_Cu bus1=REVELLE_2 bus2=E_10_11_15_106 Units=m Length=91.44
New Line.F_E_10_11_15_109 LineCode=500_Cu bus1=REVELLE_1 bus2=E_10_11_15_109 Units=m Length=91.44
New Line.F_E_10_11_15_110 LineCode=500_Cu bus1=E_10_11_15_110 bus2=REVELLE_2 Units=m Length=91.44
New Line.F_E_10_11_15_119 LineCode=500_Cu bus1=E_10_11_15_119 bus2=REVELLE_1 Units=m Length=91.44
New Line.F_E_10_11_2_1_202 LineCode=4_0_Cu bus1=E_10_11_2_202 bus2=E_10_11_2_1_202 Units=m Length=82.296
New Line.F_E_10_11_2_109 LineCode=500_Cu bus1=E_10_11_3_109 bus2=E_10_11_2_109 Units=m Length=128.016
New Line.F_E_10_11_2_110 LineCode=500_Cu bus1=E_10_11_3_110 bus2=E_10_11_2_110 Units=m Length=128.016
New Line.F_E_10_11_202 LineCode=500_Cu bus1=E_10_11_2_202 bus2=E_10_11_202 Units=m Length=94.488
New Line.F_E_10_11_205 LineCode=4_0_Cu bus1=E_10_11_2_205 bus2=E_10_11_205 Units=m Length=94.488
New Line.F_E_10_11_3_109 LineCode=500_Cu bus1=E_10_11_4_109 bus2=E_10_11_3_109 Units=m Length=80.772
New Line.F_E_10_11_3_110 LineCode=500_Cu bus1=E_10_11_4_110 bus2=E_10_11_3_110 Units=m Length=80.772
New Line.F_E_10_11_3_202 LineCode=4_0_Cu bus1=E_10_11_4_202 bus2=E_10_11_3_202 Units=m Length=80.772
New Line.F_E_10_11_4_109 LineCode=500_Cu bus1=E_10_11_5_109 bus2=E_10_11_4_109 Units=m Length=131.064
New Line.F_E_10_11_4_110 LineCode=500_Cu bus1=E_10_11_5_110 bus2=E_10_11_4_110 Units=m Length=131.064
New Line.F_E_10_11_5_109 LineCode=500_Cu bus1=E_10_11_6_109 bus2=E_10_11_5_109 Units=m Length=126.492
New Line.F_E_10_11_5_110 LineCode=500_Cu bus1=E_10_11_6_110 bus2=E_10_11_5_110 Units=m Length=126.492
New Line.F_E_10_11_6_109 LineCode=500_Cu bus1=E_10_11_7_109 bus2=E_10_11_6_109 Units=m Length=138.684
New Line.F_E_10_11_6_110 LineCode=500_Cu bus1=E_10_11_7_110 bus2=E_10_11_6_110 Units=m Length=138.684
New Line.F_E_10_11_7_109 LineCode=500_Cu bus1=E_10_11_8_109 bus2=E_10_11_7_109 Units=m Length=137.16
New Line.F_E_10_11_7_110 LineCode=500_Cu bus1=E_10_11_8_110 bus2=E_10_11_7_110 Units=m Length=137.16
New Line.F_E_10_11_8_109 LineCode=500_Cu bus1=E_10_11_9_109 bus2=E_10_11_8_109 Units=m Length=138.684
New Line.F_E_10_11_8_110 LineCode=500_Cu bus1=E_10_11_9_110 bus2=E_10_11_8_110 Units=m Length=138.684
New Line.F_E_10_11_9_109 LineCode=500_Cu bus1=E_10_11_10_109 bus2=E_10_11_9_109 Units=m Length=150.876
New Line.F_E_10_11_9_110 LineCode=500_Cu bus1=E_10_11_10_110 bus2=E_10_11_9_110 Units=m Length=150.876
New Line.F_E_10_113_203 LineCode=4_0_Cu bus1=E_10_11_3_202 bus2=E_10_11_2_202 Units=m Length=128.016
New Line.F_E_10_12_202 LineCode=500_Cu bus1=E_10_11_202 bus2=E_10_12_202 Units=m Length=106.68
New Line.F_E_10_12_205 LineCode=500_Cu bus1=E_10_11_205 bus2=E_10_12_205 Units=m Length=106.68
New Line.F_E_10_2_203 LineCode=4_0_Cu bus1=E_10_8_5_203 bus2=E_10_2_203 Units=m Length=91.44
New Line.F_E_10_2_204 LineCode=4_0_Cu bus1=E_10_8_5_204 bus2=E_10_2_204 Units=m Length=91.44
New Line.F_E_10_202 LineCode=500_Cu bus1=E_10_A_202 bus2=E_10_202 Units=m Length=4.572
New Line.F_E_10_205 LineCode=500_Cu bus1=E_10_A_205 bus2=E_10_205 Units=m Length=4.572
New Line.F_E_10_8_1_203 LineCode=4_0_Cu bus1=E_10_A_203 bus2=E_10_8_1_203 Units=m Length=68.58
New Line.F_E_10_8_1_204 LineCode=4_0_Cu bus1=E_10_A_204 bus2=E_10_8_1_204 Units=m Length=68.58
New Line.F_E_10_8_109 LineCode=500_Cu bus1=E_10_9_109 bus2=E_10_8_109 Units=m Length=144.78
New Line.F_E_10_8_110 LineCode=500_Cu bus1=E_10_9_110 bus2=E_10_8_110 Units=m Length=144.78
New Line.F_E_10_8_2_1_203 LineCode=4_0_Cu bus1=E_10_8_1_203 bus2=E_10_8_2_1_203 Units=m Length=21.336
New Line.F_E_10_8_2_1_204 LineCode=4_0_Cu bus1=E_10_8_1_204 bus2=E10_8_2_1_204 Units=m Length=21.336
New Line.F_E_10_8_2_203 LineCode=4_0_Cu bus1=E_10_8_2_1_203 bus2=E_10_8_2_203 Units=m Length=97.536
New Line.F_E_10_8_2_204 LineCode=4_0_Cu bus1=E10_8_2_1_204 bus2=E_10_8_2_204 Units=m Length=97.536
New Line.F_E_10_8_202 LineCode=500_Cu bus1=E_10_9_202 bus2=E_10_8_202 Units=m Length=144.78
New Line.F_E_10_8_205 LineCode=500_Cu bus1=E_10_9_205 bus2=E_10_8_205 Units=m Length=144.78
New Line.F_E_10_8_3_203 LineCode=4_0_Cu bus1=SB_E_10_8_3_203 bus2=E_10_8_3_203 Units=m Length=42.672
New Line.F_E_10_8_3_204 LineCode=4_0_Cu bus1=SB_E_10_8_3_204 bus2=E_10_8_3_204 Units=m Length=42.672
New Line.F_E_10_8_4_203 LineCode=4_0_Cu bus1=E_10_8_3_203 bus2=E_10_8_4_203 Units=m Length=100.584
New Line.F_E_10_8_4_204 LineCode=4_0_Cu bus1=E_10_8_3_204 bus2=E_10_8_4_204 Units=m Length=100.584
New Line.F_E_10_8_5_203 LineCode=4_0_Cu bus1=E_10_8_4_203 bus2=E_10_8_5_203 Units=m Length=21.336
New Line.F_E_10_8_5_204 LineCode=4_0_Cu bus1=E_10_8_4_204 bus2=E_10_8_5_204 Units=m Length=21.336
New Line.F_E_10_9_109 LineCode=500_Cu bus1=E_10_10_109 bus2=E_10_9_109 Units=m Length=60.96
New Line.F_E_10_9_110 LineCode=500_Cu bus1=E_10_10_110 bus2=E_10_9_110 Units=m Length=60.96
New Line.F_E_10_9_202 LineCode=500_Cu bus1=E_10_10_202 bus2=E_10_9_202 Units=m Length=60.96
New Line.F_E_10_9_205 LineCode=500_Cu bus1=E_10_10_205 bus2=E_10_9_205 Units=m Length=60.96
New Line.F_E_10_A_109 LineCode=500_Cu bus1=E_10_8_109 bus2=E_10_A_109 Units=m Length=38.1
New Line.F_E_10_A_2 LineCode=500_Cu bus1=E_10_A_203 bus2=SIO_2_SUB Units=m Length=7.62
New Line.F_E_10_A_202 LineCode=500_Cu bus1=E_10_8_202 bus2=E_10_A_202 Units=m Length=38.1
New Line.F_E_10_A_205 LineCode=500_Cu bus1=E_10_8_205 bus2=E_10_A_205 Units=m Length=38.1
New Line.F_E_10_A_3 LineCode=500_Cu bus1=E_10_A_204 bus2=SIO_1_SUB Units=m Length=7.62
New Line.F_E_10A_110 LineCode=500_Cu bus1=E_10_8_110 bus2=E_10_A_110 Units=m Length=38.1
New Line.F_E_11_0_307 LineCode=500_Cu bus1=E_11_0_307 bus2=N_CAMPUS_A Units=m Length=83.82
New Line.F_E_11_0_338 LineCode=500_Cu bus1=E_11_0_338 bus2=N_CAMPUS_C Units=m Length=83.82
New Line.F_E_11_1_307 LineCode=500_Cu bus1=E_11_1_307 bus2=E_11_0_307 Units=m Length=106.68
New Line.F_E_11_1_338 LineCode=500_Cu bus1=E_11_1_338 bus2=E_11_0_338 Units=m Length=106.68
New Line.F_E_11_2_307 LineCode=500_Cu bus1=E_11_2_307 bus2=E_11_1_307 Units=m Length=167.64
New Line.F_E_11_3_307 LineCode=500_Cu bus1=E_11_3_307 bus2=E_11_2_307 Units=m Length=149.352
New Line.F_E_11_3_338 LineCode=500_Cu bus1=E_11_3_338 bus2=E_11_2_338 Units=m Length=149.352
New Line.F_E_11_4_307 LineCode=500_Cu bus1=E_11_4_307 bus2=E_11_3_307 Units=m Length=152.4
New Line.F_E_11_4_338 LineCode=500_Cu bus1=E_11_4_338 bus2=E_11_3_338 Units=m Length=152.4
New Line.F_E_17_3_302 LineCode=500_Cu bus1=E_7_17_3_302 bus2=E_7_17_302 Units=m Length=73.152
New Line.F_E_17_3_303 LineCode=500_Cu bus1=E_7_17_3_303 bus2=E_7_17_303 Units=m Length=73.152
New Line.F_E_18_1_15 LineCode=500_Cu bus1=E_7_18_1_15 bus2=E_7_18_15 Units=m Length=51.816
New Line.F_E_18_2_15 LineCode=500_Cu bus1=E_7_18_2_15 bus2=E_7_18_1_15 Units=m Length=39.624
New Line.F_E_2_0_EG LineCode=250_Cu bus1=E_1_1_EG bus2=E_2_0_EG Units=m Length=115.824
New Line.F_E_2_1_102 LineCode=500_Cu bus1=E_1_1_102 bus2=E_2_1_102 Units=m Length=109.728
New Line.F_E_2_1_105 LineCode=500_Cu bus1=E_1_1_105 bus2=E_2_1_105 Units=m Length=109.728
New Line.F_E_2_1_19 LineCode=500_Cu bus1=E_1_1_19 bus2=E_2_1_19 Units=m Length=109.728
New Line.F_E_2_1_EG LineCode=250_Cu bus1=GILMAN_VAULT_EG bus2=E_2_1_EG Units=m Length=30.48
New Line.F_E_2_10_1_12 LineCode=500_Cu bus1=SS_61_TMC bus2=E_2_10_1_12 Units=m Length=45.72
New Line.F_E_2_10_1_15 LineCode=500_Cu bus1=SS_60_TMC bus2=E_2_10_1_15 Units=m Length=45.72
New Line.F_E_2_10_12 LineCode=500_Cu bus1=BLDG_3B_12KV bus2=E_2_10_12 Units=m Length=79.248
New Line.F_E_2_10_15 LineCode=500_Cu bus1=BLDG_3B_15 bus2=E_2_10_15 Units=m Length=79.248
New Line.F_E_2_10_2_12 LineCode=500_Cu bus1=SS_46_TMC_12 bus2=E_2_10_2_12 Units=m Length=21.336
New Line.F_E_2_10_2_15 LineCode=500_Cu bus1=SS_46_TMC_15 bus2=E_2_10_2_15 Units=m Length=21.336
New Line.F_E_2_10_3_12 LineCode=500_Cu bus1=E_2_10_2_12 bus2=E_2_10_3_12 Units=m Length=30.48
New Line.F_E_2_10_3_15 LineCode=500_Cu bus1=E_2_10_2_15 bus2=E_2_10_3_15 Units=m Length=30.48
New Line.F_E_2_10_4_12 LineCode=500_Cu bus1=E_2_10_3_12 bus2=E_2_10_4_12 Units=m Length=30.48
New Line.F_E_2_10_4_15 LineCode=500_Cu bus1=E_2_10_3_15 bus2=E_2_10_4_15 Units=m Length=30.48
New Line.F_E_2_2_EG LineCode=250_Cu bus1=E_2_2_EG bus2=E_2_1_EG Units=m Length=94.488
New Line.F_E_2_3_EG LineCode=250_Cu bus1=E_2_3_EG bus2=E_2_2_EG Units=m Length=146.304
New Line.F_E_2_4_1_12 LineCode=500_Cu bus1=SS_83_MC_12 bus2=E_2_4_1_12 Units=m Length=146.304
New Line.F_E_2_4_1_15 LineCode=500_Cu bus1=SS_83_MC_15 bus2=E_2_4_1_15 Units=m Length=146.304