Clear
New Circuit.ucsdMicrogrid bus1=SDG&E_69KV basekv=69 pu=1 angle=0 frequency=60 MVAsc3=20000 MVAsc1=20000 x1r1=8.6 x0r0=8.9 BaseFreq=60
New Linecode.1_0_Cu r1=0.269029 x1=0.108268 r0=0.429790 x0=0.272310 units=km
New Linecode.2_0_Cu r1=0.216535 x1=0.104987 r0=0.341207 x0=0.269029 units=km
New Linecode.3_0_Cu r1=0.172244 x1=0.098425 r0=0.270669 x0=0.262467 units=km
New Linecode.4_0_Cu r1=0.134514 x1=0.098425 r0=0.213255 x0=0.249344 units=km
New Linecode.6_Cu r1=726.213911 x1=97.539370 r0=2288.615486 x0=240.223097 units=km
New Linecode.10_Cu r1=1680.282152 x1=121.620735 r0=5295.472441 x0=299.475066 units=km
New Linecode.250_Cu r1=1.154856 x1=1.650262 r0=7.034121 x0=6.617454 units=km
New Linecode.350_Cu r1=0.695538 x1=0.748031 r0=1.108924 x0=1.896325 units=km
New Linecode.500_Cu r1=0.059055 x1=0.088583 r0=0.095144 x0=0.239501 units=km
New Linecode.600_Cu r1=0.023950 x1=0.131234 r0=0.148950 x0=0.695538 units=km
New Linecode.750_Cu r1=0.042651 x1=0.082021 r0=0.068898 x0=0.213255 units=km
New Line.CBL_0581 bus1=E_7_10_2_11 bus2=E_1_9_1_11 Linecode=500_Cu length=9.906000e+01 units=m
New Line.CBL_0583 bus1=SS23_14 bus2=SS_23_WC Linecode=600_Cu length=3.048000e-01 units=m
New Line.CBL_0726 bus1=SS_126 bus2=BUS_0861 Linecode=750_Cu length=3.048000e-01 units=m
New Line.CBL_0727 bus1=SS_126 bus2=BUS_0862 Linecode=750_Cu length=3.048000e-01 units=m
New Line.CBL_0728 bus1=SS_127 bus2=BUS_0865 Linecode=750_Cu length=3.048000e-01 units=m
New Line.CBL_0729 bus1=SS_127 bus2=BUS_0866 Linecode=750_Cu length=3.048000e-01 units=m
New Line.CBL_E_4_1_404 bus1=E_4_404 bus2=E_4_1_404 Linecode=750_Cu length=5.791200e+01 units=m  
New Line.CBL_E_4_1_405 bus1=E_4_405 bus2=E_4_1_405 Linecode=750_Cu length=5.791200e+01 units=m
New Line.CBL_E_4_1_409 bus1=E_4_409 bus2=E_4_1_409 Linecode=500_Cu length=6.126480e+01 units=m
New Line.CBL_E_4_2_404 bus1=E_4_1_404 bus2=E_4_2_404 Linecode=750_Cu length=6.797040e+01 units=m
New Line.CBL_E_4_2_405 bus1=E_4_1_405 bus2=E_4_2_405 Linecode=750_Cu length=6.797040e+01 units=m
New Line.CBL_E_4_2_409 bus1=E_4_1_409 bus2=E_4_2_409 Linecode=500_Cu length=7.467600e+01 units=m
New Line.CBL_E_4_404 bus1=MCSS_MB bus2=E_4_404 Linecode=750_Cu length=3.810000e+01 units=m
New Line.CBL_E_4_405 bus1=MCSS_MA bus2=E_4_405 Linecode=750_Cu length=3.048000e+01 units=m
New Line.CBL_E_4_407 bus1=MCSS_MA bus2=E_4_407 Linecode=750_Cu length=3.048000e+01 units=m
New Line.CBL_E_4_409 bus1=MCSS_MA bus2=E_4_409 Linecode=500_Cu length=3.352800e+01 units=m
New Line.CBL_E_4_413 bus1=MCSS_MA bus2=E_4_413 Linecode=500_Cu length=6.400800e+01 units=m
New Line.CBL_E_4_9_413 bus1=E_5_8_1_413 bus2=E_4_9_413 Linecode=750_Cu length=1.524000e+02 units=m
New Line.CBL_E_5_3_1_SS_138 bus1=E_5_3_SS_138 bus2=E_5_3_1_SS_138 Linecode=500_Cu length=6.096000e+00 units=m
New Line.CBL_E_5_3_412 bus1=E_5_1_412 bus2=E_5_3_412 Linecode=500_Cu length=2.651760e+02 units=m
New Line.CBL_E_5_3_437 bus1=E_5_1_437 bus2=E_5_3_437 Linecode=500_Cu length=2.651760e+02 units=m
New Line.CBL_E_5_3_SS_138 bus1=SS_51_EC bus2=E_5_3_SS_138 Linecode=500_Cu length=1.524000e+01 units=m
New Line.CBL_E_5_4_2_404 bus1=E_4_2_404 bus2=E_5_4_2_404 Linecode=750_Cu length=3.810000e+01 units=m
New Line.CBL_E_5_4_2_405 bus1=E_4_2_405 bus2=E_5_4_2_405 Linecode=750_Cu length=3.810000e+01 units=m
New Line.CBL_E_5_4_406 bus1=E_4_406 bus2=E_5_4_406 Linecode=750_Cu length=6.248400e+01 units=m
New Line.CBL_E_5_4_407 bus1=E_4_407 bus2=E_5_4_407 Linecode=750_Cu length=6.248400e+01 units=m
New Line.CBL_E_5_4_413 bus1=E_4_413 bus2=E_5_4_413 Linecode=500_Cu length=6.248400e+01 units=m
New Line.CBL_E_5_4_436 bus1=E_4_436 bus2=E_5_4_436 Linecode=500_Cu length=6.248400e+01 units=m
New Line.CBL_E_5_7_413 bus1=E_5_4_413 bus2=E_5_7_413 Linecode=750_Cu length=1.085088e+02 units=m
New Line.CBL_E_5_8_1_413 bus1=E_5_7_413 bus2=E_5_8_1_413 Linecode=750_Cu length=1.356360e+02 units=m
New Line.CBL_E_6A_5_EC_12 bus1=E_6A_2_EC_12 bus2=E_6A_5_EC_12 Linecode=750_Cu length=1.271016e+02 units=m
New Line.CBL_E_6A_5_EC_25 bus1=E_6A_2_EC_25 bus2=E_6A_5_EC_25 Linecode=750_Cu length=1.271016e+02 units=m
New Line.CBL_E_6A_5_EC_37 bus1=E_5_1_37 bus2=E_6A_5_EC_37 Linecode=750_Cu length=1.292352e+02 units=m
New Line.CBL_E_6A_6_EC_12 bus1=E_6A_5_EC_12 bus2=E_6A_6_EC_12 Linecode=750_Cu length=1.325880e+02 units=m
New Line.CBL_E_6A_6_EC_25 bus1=E_6A_5_EC_25 bus2=E_6A_6_EC_25 Linecode=750_Cu length=1.325880e+02 units=m
New Line.CBL_E_6A_6_EC_37 bus1=E_6A_5_EC_37 bus2=E_6A_6_EC_37 Linecode=750_Cu length=1.325880e+02 units=m
New Line.CBL_EMH_E_4_406 bus1=MCSS_MB bus2=E_4_406 Linecode=750_Cu length=3.810000e+01 units=m
New Line.CBL_EMH_E_4_436 bus1=MCSS_MC bus2=E_4_436 Linecode=500_Cu length=4.876800e+01 units=m
New Line.CBL_EMH_E_5_1_412 bus1=E_6A_5_412 bus2=E_5_1_412 Linecode=500_Cu length=1.292352e+02 units=m
New Line.CBL_EMH_E_5_1A_437 bus1=E_6A_5_MA_437 bus2=E_5_1_437 Linecode=500_Cu length=1.292352e+02 units=m
New Line.CBL_EMH_E_5_8_1_406 bus1=E_5_7_406 bus2=E_5_8_1_406 Linecode=750_Cu length=1.356360e+02 units=m
New Line.CBL_EMH_E_5_8_1_407 bus1=E_5_7_407 bus2=E_5_8_1_407 Linecode=750_Cu length=1.356360e+02 units=m
New Line.CBL_EMH_E_6A_5_412 bus1=E_6A_6_412 bus2=E_6A_5_412 Linecode=500_Cu length=1.325880e+02 units=m
New Line.CBL_EMH_E_6A_5_437 bus1=E_6A_6_MA_437 bus2=E_6A_5_MA_437 Linecode=500_Cu length=1.325880e+02 units=m
New Line.CBl_EMH_E_6A_6_437 bus1=MCSS_MC bus2=E_6A_6_MA_437 Linecode=500_Cu length=2.895600e+01 units=m
New Line.CBL_EMH_E6A_6_412 bus1=MCSS_MB bus2=E_6A_6_412 Linecode=500_Cu length=3.657600e+01 units=m
New Line.CBL_MCSS_MA bus1=E_6A_6_EC_25 bus2=MCSS_MA Linecode=750_Cu length=3.810000e+01 units=m
New Line.CBL_MCSS_MB bus1=E_6A_6_EC_12 bus2=MCSS_MB Linecode=750_Cu length=3.048000e+01 units=m
New Line.CBL_MCSS_MC bus1=E_6A_6_EC_37 bus2=MCSS_MC Linecode=750_Cu length=2.438400e+01 units=m
New Line.CBL_SS_102_406 bus1=E_5_8_1_406 bus2=SS_102_EC Linecode=750_Cu length=8.107680e+01 units=m
New Line.CBL_SS_103_407 bus1=E_5_8_1_407 bus2=SS_103_EC Linecode=750_Cu length=8.107680e+01 units=m
New Line.CBL_SS_114_EC bus1=E_5_4_2_405 bus2=SS_114_EC Linecode=750_Cu length=6.858000e+01 units=m
New Line.CBL_SS_115_EC bus1=E_5_4_2_404 bus2=SS_115_EC Linecode=750_Cu length=6.858000e+01 units=m
New Line.CBL_SS_125_MCSS_409 bus1=E_4_2_409 bus2=SS_125_MCSS Linecode=500_Cu length=2.011680e+01 units=m
New Line.CBL_SS_126_407 bus1=E_5_8_1_407 bus2=SS_126 Linecode=750_Cu length=8.839200e+01 units=m
New Line.CBL_SS_127_406 bus1=E_5_8_1_406 bus2=SS_127 Linecode=750_Cu length=8.839200e+01 units=m
New Line.CBL_SS_130 bus1=E_4_2_405 bus2=SS_130 Linecode=750_Cu length=5.245608e+02 units=m
New Line.CBL_SS_131 bus1=E_4_2_404 bus2=SS_131 Linecode=750_Cu length=5.257800e+02 units=m
New Line.CBL_SS_138 bus1=E_5_3_2_SS_138 bus2=SS_138 Linecode=500_Cu length=1.524000e+01 units=m
New Line.CBL_T_304_EC_PS bus1=SS_125_MCSS bus2=BUS_PD_T_304 Linecode=500_Cu length=7.620000e+00 units=m
New Line.CBL_T_JMC_TEMP_PWR bus1=SS_125_MCSS bus2=BUS_JMC_TEMP_PWR_LI_SW Linecode=500_Cu length=4.267200e+02 units=m
New Line.CBL_T_JMC_TEMP_PWR_PRI bus1=BUS_JMC_TEMP_PWR_LI_SW bus2=BUS_JMC_TEMP_PWR_PRI Linecode=4_0_Cu length=3.657600e+00 units=m
New Line.CBL_XF_CPT_1A bus1=MCSS_MA bus2=BUS_XF_CPT_1A Linecode=1_0_Cu length=2.773680e+01 units=m
New Line.CBL_XF_CPT_1B bus1=MCSS_MB bus2=BUS_XF_CPT_1B Linecode=1_0_Cu length=3.048000e+01 units=m
New Line.CBL_XF_CPT_1C bus1=MCSS_MC bus2=BUS_XF_CPT_1C Linecode=2_0_Cu length=2.438400e+01 units=m
New Line.CBL_XF_CPT_C bus1=EAST_CAMPUS_1 bus2=BUS_XF_CPT_C_PRI Linecode=2_0_Cu length=1.676400e+01 units=m
New Line.CBL_XF_CPT_E bus1=EAST_CAMPUS_1 bus2=BUS_XF_CPT_E_PRI Linecode=2_0_Cu length=1.524000e+01 units=m
New Line.CBL_XF_CPT_W bus1=EAST_CAMPUS_1 bus2=BUS_XF_CPT_W_PRI Linecode=2_0_Cu length=1.828800e+01 units=m
New Line.F_1SG1 bus1=SG1_BUS bus2=PSB Linecode=500_Cu length=8.534400e+01 units=m
New Line.F_3RD_C_S166 bus1=E_7_19_4 bus2=3RD_C_S166_PRI Linecode=2_0_Cu length=7.162800e+01 units=m
New Line.F_3RD_C_S206 bus1=E_7_19_1 bus2=3RD_C_S206PRI Linecode=500_Cu length=8.839200e+01 units=m
New Line.F_3RD_C_S207 bus1=3RD_C_S206PRI bus2=T_207_PRI Linecode=500_Cu length=9.144000e+01 units=m
New Line.F_ALEX_SP bus1=E_7_26_1 bus2=ALEX_SP_PRI Linecode=4_0_Cu length=7.924800e+01 units=m
New Line.F_ARGO_BLAKE bus1=SS_35_RC bus2=T_342_PRI Linecode=500_Cu length=4.114800e+01 units=m
New Line.F_ATHL_FIELD bus1=E_7_23_1 bus2=T_242_PRI Linecode=250_Cu length=1.676400e+02 units=m
New Line.F_B_BOX_REST bus1=SS_88_RC bus2=B_BOX_REST_PRI Linecode=500_Cu length=8.534400e+01 units=m
New Line.F_B_SCI_PB3_102 bus1=PB_1_102 bus2=B_SCI_PB3_102 Linecode=500_Cu length=4.724400e+01 units=m
New Line.F_B_SCI_PB3_105 bus1=PB_1_105 bus2=B_SCI_PB3_105 Linecode=500_Cu length=4.724400e+01 units=m
New Line.F_B_SCI_PB4_102 bus1=B_SCI_PB3_102 bus2=B_SCI_PB4_102 Linecode=500_Cu length=5.181600e+01 units=m
New Line.F_B_SCI_PB4_105 bus1=B_SCI_PB3_105 bus2=B_SCI_PB4_105 Linecode=500_Cu length=5.181600e+01 units=m
New Line.F_BIO_MED bus1=SS_95_SOM bus2=PRI_BIO_MED Linecode=500_Cu length=3.810000e+01 units=m
New Line.F_BIRCH_AQ bus1=SS_64_SIO bus2=BUS_T_223_PRI Linecode=4_0_Cu length=7.620000e+01 units=m
New Line.F_BLACK_BOX bus1=SS_88_RC bus2=BLACK_BOX_PRI Linecode=500_Cu length=3.048000e+01 units=m
New Line.F_BLDG_3C_12 bus1=BLDG_3B_12KV bus2=BLDG_3C_12KV Linecode=500_Cu length=4.267200e+01 units=m
New Line.F_BLDG_3C_15 bus1=BLDG_3B_15 bus2=BLDG3C_15_12KV Linecode=500_Cu length=4.267200e+01 units=m
New Line.F_BONNER_LCA bus1=SS_36_RC bus2=SW_T_119 Linecode=2_0_Cu length=1.066800e+01 units=m
New Line.F_BONNER_LCB bus1=SS_36_RC bus2=SW_T_120 Linecode=2_0_Cu length=1.371600e+01 units=m
New Line.F_BONNER_LCC bus1=SS_36_RC bus2=SW_T_121_1 Linecode=2_0_Cu length=7.620000e+01 units=m
New Line.F_BRAIN_IMAGE bus1=SS_95_SOM bus2=PRI_BIO_MED_1 Linecode=500_Cu length=3.657600e+01 units=m
New Line.F_BSB_MTF_TUN_102 bus1=E_1_2_102 bus2=BSB_MTF_TUN_102 Linecode=500_Cu length=6.705600e+01 units=m
New Line.F_BSB_MTF_TUN_105 bus1=E_1_2_105 bus2=BSB_MTF_TUN_105 Linecode=500_Cu length=6.705600e+01 units=m
New Line.F_BUS_NC14 bus1=BUS_NC_14 bus2=N_CAMPUS_B Linecode=500_Cu length=9.144000e-01 units=m
New Line.F_BUS_NC15 bus1=E_7_C_NC3 bus2=N_CAMPUS_C Linecode=500_Cu length=1.524000e+02 units=m
New Line.F_BUS_NC17 bus1=E_7_C_NC2 bus2=N_CAMPUS_B Linecode=500_Cu length=1.524000e+02 units=m
New Line.F_BUS_NC18 bus1=BUS_NC17 bus2=N_CAMPUS_A Linecode=500_Cu length=9.144000e-01 units=m
New Line.F_BUS_NC19 bus1=E_7_B_NC3 bus2=E_7_C_NC3 Linecode=500_Cu length=9.601200e+01 units=m
New Line.F_C_LIB_S182 bus1=E_1_6_8 bus2=S182_8 Linecode=500_Cu length=4.572000e+01 units=m
New Line.F_C_LIB_S183 bus1=S182_8 bus2=S183_8 Linecode=500_Cu length=9.144000e-01 units=m
New Line.F_C_LIB_S184 bus1=S183_8 bus2=C_LIB_S184_PRI Linecode=500_Cu length=3.048000e-01 units=m
New Line.F_C_UNION bus1=SS_50_SC bus2=T_253_PRI Linecode=500_Cu length=1.767840e+02 units=m
New Line.F_CB_52_TB bus1=BUS_52_TB bus2=MSG Linecode=250_Cu length=1.524000e+01 units=m
New Line.F_CH_1 bus1=SUB_1A bus2=BUS_CH_1 Linecode=500_Cu length=9.144000e+00 units=m
New Line.F_CH_2 bus1=SUB_1A bus2=BUS_CH_2 Linecode=500_Cu length=9.144000e+00 units=m
New Line.F_CLASSROOM bus1=SS_28_SIO bus2=BUS_T_238_PRI Linecode=500_Cu length=6.096000e+00 units=m
New Line.F_CLIN_SCI_102 bus1=E_1_2_2_1_102 bus2=CLIN_SCI_12KV Linecode=500_Cu length=1.645920e+02 units=m
New Line.F_CT34_PSB bus1=PSB bus2=SW_T_087 Linecode=500_Cu length=4.572000e+01 units=m
New Line.F_E_1_0_1_104 bus1=E_1_0_104 bus2=E_1_0_1_104 Linecode=500_Cu length=1.249680e+02 units=m
New Line.F_E_1_0_1_107 bus1=E_1_0_107 bus2=E_1_0_1_107 Linecode=500_Cu length=1.249680e+02 units=m
New Line.F_E_1_0_104 bus1=REVELLE_2 bus2=E_1_0_104 Linecode=500_Cu length=1.066800e+02 units=m
New Line.F_E_1_0_107 bus1=REVELLE_1 bus2=E_1_0_107 Linecode=500_Cu length=1.066800e+02 units=m
New Line.F_E_1_0_1A_104 bus1=E_1_0_1_104 bus2=E_1_0_1A_104 Linecode=500_Cu length=8.229600e+01 units=m
New Line.F_E_1_0_1A_107 bus1=E_1_0_1_107 bus2=E_1_0_1A_107 Linecode=500_Cu length=8.229600e+01 units=m
New Line.F_E_1_0_2_107 bus1=E_1_0_1A_107 bus2=E_1_0_2_107 Linecode=500_Cu length=1.219200e+02 units=m
New Line.F_E_1_0_2A_104 bus1=E_1_0_1A_104 bus2=E_1_0_2A_104 Linecode=500_Cu length=1.341120e+02 units=m
New Line.F_E_1_0_2A_107 bus1=E_1_0_1A_107 bus2=E_1_0_2A_107 Linecode=500_Cu length=1.341120e+02 units=m
New Line.F_E_1_0_2B_104 bus1=E_1_0_2A_104 bus2=E_1_0_2B_104 Linecode=500_Cu length=4.572000e+01 units=m
New Line.F_E_1_0_2B_107__1 bus1=E_1_0_2A_107 bus2=E_1_0_2B_107 Linecode=500_Cu length=4.572000e+01 units=m
New Line.F_E_1_0_2B_107__2 bus1=E_1_0_2B_107 bus2=SS_136 Linecode=500_Cu length=4.572000e+01 units=m
New Line.F_E_1_0_3A_104 bus1=E_1_0_2A_104 bus2=E_1_0_3A_104 Linecode=500_Cu length=4.572000e+01 units=m
New Line.F_E_1_0_3A_107 bus1=E_1_0_2A_107 bus2=E_1_0_3A_107 Linecode=500_Cu length=4.572000e+01 units=m
New Line.F_E_1_1_102 bus1=E_1_2_0_102 bus2=E_1_1_102 Linecode=500_Cu length=1.158240e+02 units=m
New Line.F_E_1_1_105 bus1=E_1_2_0_105 bus2=E_1_1_105 Linecode=500_Cu length=1.158240e+02 units=m
New Line.F_E_1_1_19 bus1=E_1_2_0_19 bus2=E_1_1_19 Linecode=500_Cu length=1.158240e+02 units=m
New Line.F_E_1_1_4 bus1=E_1_2_0_4 bus2=E_1_1_4 Linecode=500_Cu length=1.158240e+02 units=m
New Line.F_E_1_1_EG bus1=E_2_1_EG bus2=E_1_1_EG Linecode=250_Cu length=1.097280e+02 units=m
New Line.F_E_1_10_11 bus1=E_1_10_11 bus2=E_1_11_11 Linecode=500_Cu length=6.858000e+01 units=m
New Line.F_E_1_10_8 bus1=E_1_10_8 bus2=E_1_11_8 Linecode=500_Cu length=6.858000e+01 units=m
New Line.F_E_1_11_11 bus1=E_1_11_11 bus2=E_1_12_11 Linecode=500_Cu length=9.144000e+01 units=m
New Line.F_E_1_11_8 bus1=E_1_11_8 bus2=E_1_12_8 Linecode=500_Cu length=9.144000e+01 units=m
New Line.F_E_1_19 bus1=E_7_17_1_338 bus2=SS_120_ERC Linecode=500_Cu length=1.295400e+02 units=m
New Line.F_E_1_2_0_102 bus1=E_1_2_102 bus2=E_1_2_0_102 Linecode=500_Cu length=9.144000e+00 units=m
New Line.F_E_1_2_0_105 bus1=E_1_2_105 bus2=E_1_2_0_105 Linecode=500_Cu length=9.144000e+00 units=m
New Line.F_E_1_2_0_19 bus1=E_1_2_19 bus2=E_1_2_0_19 Linecode=500_Cu length=9.144000e+00 units=m
New Line.F_E_1_2_0_4 bus1=E_1_2_4 bus2=E_1_2_0_4 Linecode=500_Cu length=9.144000e+00 units=m
New Line.F_E_1_2_1_102 bus1=E_1_2_102 bus2=E_1_2_1_102 Linecode=500_Cu length=1.021080e+02 units=m
New Line.F_E_1_2_1_105 bus1=E_1_2_105 bus2=E_1_2_1_105 Linecode=500_Cu length=1.021080e+02 units=m
New Line.F_E_1_2_102 bus1=E_1_3_102 bus2=E_1_2_102 Linecode=500_Cu length=1.249680e+02 units=m
New Line.F_E_1_2_105 bus1=E_1_3_105 bus2=E_1_2_105 Linecode=500_Cu length=1.249680e+02 units=m
New Line.F_E_1_2_19 bus1=E_1_3_19 bus2=E_1_2_19 Linecode=500_Cu length=1.249680e+02 units=m
New Line.F_E_1_2_2_1_102 bus1=E_1_2_2_102 bus2=E_1_2_2_1_102 Linecode=500_Cu length=3.048000e+00 units=m
New Line.F_E_1_2_2_102 bus1=B_SCI_PB4_102 bus2=E_1_2_2_102 Linecode=500_Cu length=4.876800e+01 units=m
New Line.F_E_1_2_2_105 bus1=B_SCI_PB4_105 bus2=E_1_2_2_105 Linecode=500_Cu length=4.876800e+01 units=m
New Line.F_E_1_2_3_105 bus1=E_1_2_2_105 bus2=E_1_2_3_105 Linecode=500_Cu length=9.906000e+01 units=m
New Line.F_E_1_2_4 bus1=E_1_3_4 bus2=E_1_2_4 Linecode=500_Cu length=1.249680e+02 units=m
New Line.F_E_1_2_EG bus1=SS_84 bus2=E_1_2_EG Linecode=250_Cu length=9.144000e+00 units=m
New Line.F_E_1_20 bus1=SS_119_ERC bus2=E_7_17_1_307 Linecode=500_Cu length=1.295400e+02 units=m
New Line.F_E_1_3_11 bus1=E_1_4_11 bus2=E_1_3_11 Linecode=500_Cu length=1.234440e+02 units=m
New Line.F_E_1_3_19 bus1=E_1_3_19 bus2=E_6_16_19 Linecode=500_Cu length=7.162800e+01 units=m
New Line.F_E_1_3_4 bus1=E_1_3_4 bus2=E_6_16_4 Linecode=500_Cu length=7.162800e+01 units=m
New Line.F_E_1_3_8 bus1=E_1_4_8 bus2=E_1_3_8 Linecode=500_Cu length=1.234440e+02 units=m
New Line.F_E_1_4_1_11 bus1=E_1_4_1_11 bus2=E_1_4_11 Linecode=500_Cu length=7.772400e+01 units=m
New Line.F_E_1_4_1_8 bus1=E_1_4_1_8 bus2=E_1_4_8 Linecode=500_Cu length=7.772400e+01 units=m
New Line.F_E_1_4_11 bus1=E_1_5_11 bus2=E_1_4_11 Linecode=500_Cu length=1.447800e+02 units=m
New Line.F_E_1_4_2_11 bus1=E_1_4_2_11 bus2=E_1_4_1_11 Linecode=500_Cu length=9.144000e+01 units=m
New Line.F_E_1_4_2_8 bus1=E_1_4_2_8 bus2=E_1_4_1_8 Linecode=500_Cu length=9.144000e+01 units=m
New Line.F_E_1_4_3_11 bus1=E_1_4_3_11 bus2=E_1_4_2_11 Linecode=500_Cu length=9.144000e+01 units=m
New Line.F_E_1_4_4_1_304 bus1=E_1_4_4_1_304 bus2=E_1_4_4_304 Linecode=500_Cu length=8.229600e+01 units=m
New Line.F_E_1_4_4_1_305 bus1=E_1_4_4_1_305 bus2=E_1_4_4_305 Linecode=500_Cu length=8.229600e+01 units=m
New Line.F_E_1_4_4_304 bus1=E_1_9_2_304 bus2=E_1_4_4_304 Linecode=500_Cu length=1.097280e+02 units=m
New Line.F_E_1_4_4_305 bus1=E_1_9_2_305 bus2=E_1_4_4_305 Linecode=500_Cu length=1.097280e+02 units=m
New Line.F_E_1_4_5_304 bus1=E_1_4_5_304 bus2=E_1_4_4_304 Linecode=500_Cu length=1.615440e+02 units=m
New Line.F_E_1_4_5_305 bus1=E_1_4_5_305 bus2=E_1_4_4_305 Linecode=500_Cu length=1.615440e+02 units=m
New Line.F_E_1_4_8 bus1=E_1_5_8 bus2=E_1_4_8 Linecode=500_Cu length=1.447800e+02 units=m
New Line.F_E_1_5_11 bus1=E_1_6_11 bus2=E_1_5_11 Linecode=500_Cu length=9.753600e+01 units=m
New Line.F_E_1_5_8 bus1=E_1_6_8 bus2=E_1_5_8 Linecode=500_Cu length=9.753600e+01 units=m
New Line.F_E_1_6_11 bus1=E_1_7_11 bus2=E_1_6_11 Linecode=500_Cu length=1.219200e+02 units=m
New Line.F_E_1_6_8 bus1=E_1_7_8 bus2=E_1_6_8 Linecode=500_Cu length=1.219200e+02 units=m
New Line.F_E_1_7_11 bus1=E_1_8_11 bus2=E_1_7_11 Linecode=500_Cu length=1.188720e+02 units=m
New Line.F_E_1_7_8 bus1=E_1_8_8 bus2=E_1_7_8 Linecode=500_Cu length=1.188720e+02 units=m
New Line.F_E_1_8_11 bus1=E_1_9_11 bus2=E_1_8_11 Linecode=500_Cu length=3.048000e+01 units=m
New Line.F_E_1_8_8 bus1=E_1_9_8 bus2=E_1_8_8 Linecode=500_Cu length=3.048000e+01 units=m
New Line.F_E_1_9_1 bus1=E_1_9_8 bus2=E_1_9_1_8 Linecode=500_Cu length=1.219200e+01 units=m
New Line.F_E_1_9_1_11 bus1=E_1_9_11 bus2=E_1_9_1_11 Linecode=500_Cu length=1.219200e+01 units=m
New Line.F_E_1_9_1_8 bus1=E_7_10_2_8 bus2=E_1_9_1_8 Linecode=500_Cu length=9.906000e+01 units=m
New Line.F_E_1_9_11 bus1=E_1_10_11 bus2=E_1_9_11 Linecode=500_Cu length=9.144000e+01 units=m
New Line.F_E_1_9_2_11 bus1=E_1_9_1_11 bus2=E_1_9_2_11 Linecode=500_Cu length=7.162800e+01 units=m
New Line.F_E_1_9_2_304 bus1=E_1_9_2_304 bus2=E_1_9_3_304 Linecode=500_Cu length=1.097280e+02 units=m
New Line.F_E_1_9_2_305 bus1=E_1_9_2_305 bus2=E_1_9_3_305 Linecode=500_Cu length=1.097280e+02 units=m
New Line.F_E_1_9_2_8 bus1=E_1_9_1_8 bus2=E_1_9_2_8 Linecode=500_Cu length=7.162800e+01 units=m
New Line.F_E_1_9_3_304 bus1=E_1_9_4_304 bus2=E_1_9_3_304 Linecode=500_Cu length=7.315200e+01 units=m
New Line.F_E_1_9_3_305 bus1=E_1_9_4_305 bus2=E_1_9_3_305 Linecode=500_Cu length=7.315200e+01 units=m
New Line.F_E_1_9_4_304 bus1=E_1_9_4_304 bus2=E_1_9_5_304 Linecode=500_Cu length=1.005840e+02 units=m
New Line.F_E_1_9_4_305 bus1=E_1_9_4_305 bus2=E_1_9_5_305 Linecode=500_Cu length=1.005840e+02 units=m
New Line.F_E_1_9_5_304 bus1=E_7_C_304 bus2=E_1_9_5_304 Linecode=500_Cu length=1.036320e+02 units=m
New Line.F_E_1_9_5_305 bus1=E_7_C_305 bus2=E_1_9_5_305 Linecode=500_Cu length=1.036320e+02 units=m
New Line.F_E_1_9_8 bus1=E_1_10_8 bus2=E_1_9_8 Linecode=500_Cu length=9.144000e+01 units=m
New Line.F_E_10_10_109 bus1=E_10_11_109 bus2=E_10_10_109 Linecode=500_Cu length=5.486400e+01 units=m
New Line.F_E_10_10_110 bus1=E_10_11_110 bus2=E_10_10_110 Linecode=500_Cu length=5.486400e+01 units=m
New Line.F_E_10_10_202 bus1=E_10_11_202 bus2=E_10_10_202 Linecode=4_0_Cu length=5.486400e+01 units=m
New Line.F_E_10_10_205 bus1=E_10_11_205 bus2=E_10_10_205 Linecode=4_0_Cu length=5.486400e+01 units=m
New Line.F_E_10_11_1_202 bus1=E_10_10_202 bus2=E_10_11_1_202 Linecode=4_0_Cu length=9.601200e+01 units=m
New Line.F_E_10_11_1_205 bus1=E_10_10_205 bus2=E_10_11_1_205 Linecode=4_0_Cu length=9.601200e+01 units=m
New Line.F_E_10_11_10_109 bus1=E_10_11_11_109 bus2=E_10_11_10_109 Linecode=500_Cu length=3.352800e+01 units=m
New Line.F_E_10_11_10_110 bus1=E_10_11_11_110 bus2=E_10_11_10_110 Linecode=500_Cu length=3.352800e+01 units=m
New Line.F_E_10_11_109 bus1=E_10_11_2_109 bus2=E_10_11_109 Linecode=500_Cu length=9.448800e+01 units=m
New Line.F_E_10_11_11_109 bus1=E_10_11_12_109 bus2=E_10_11_11_109 Linecode=500_Cu length=1.051560e+02 units=m
New Line.F_E_10_11_11_110 bus1=E_10_11_12_110 bus2=E_10_11_11_110 Linecode=500_Cu length=1.051560e+02 units=m
New Line.F_E_10_11_110 bus1=E_10_11_2_110 bus2=E_10_11_110 Linecode=500_Cu length=9.448800e+01 units=m
New Line.F_E_10_11_12_109 bus1=E_10_11_13_109 bus2=E_10_11_12_109 Linecode=500_Cu length=1.203960e+02 units=m
New Line.F_E_10_11_12_110 bus1=E_10_11_13_110 bus2=E_10_11_12_110 Linecode=500_Cu length=1.203960e+02 units=m
New Line.F_E_10_11_13_1_106 bus1=E_10_11_13_1_106 bus2=E_10_11_13_106 Linecode=500_Cu length=1.127760e+02 units=m
New Line.F_E_10_11_13_1_119 bus1=E_10_11_13_1_119 bus2=E_10_11_13_119 Linecode=500_Cu length=1.127760e+02 units=m
New Line.F_E_10_11_13_106 bus1=E_10_11_14_106 bus2=E_10_11_13_106 Linecode=500_Cu length=1.493520e+02 units=m
New Line.F_E_10_11_13_109 bus1=E_10_11_14_109 bus2=E_10_11_13_109 Linecode=500_Cu length=1.493520e+02 units=m
New Line.F_E_10_11_13_110 bus1=E_10_11_14_110 bus2=E_10_11_13_110 Linecode=500_Cu length=1.493520e+02 units=m
New Line.F_E_10_11_13_119 bus1=E_10_11_14_119 bus2=E_10_11_13_119 Linecode=500_Cu length=1.493520e+02 units=m
New Line.F_E_10_11_13_1A_106 bus1=E_10_11_13_106 bus2=E_10_11_13_1A_106 Linecode=500_Cu length=1.280160e+02 units=m
New Line.F_E_10_11_13_1A_119 bus1=E_10_11_13_119 bus2=E_10_11_13_1A_119 Linecode=500_Cu length=1.280160e+02 units=m
New Line.F_E_10_11_13_2_106 bus1=E_10_11_13_2_106 bus2=E_10_11_13_1_106 Linecode=500_Cu length=1.143000e+02 units=m
New Line.F_E_10_11_13_2_119 bus1=E_10_11_13_2_119 bus2=E_10_11_13_1_119 Linecode=500_Cu length=1.143000e+02 units=m
New Line.F_E_10_11_13_3_106 bus1=E_10_11_13_3_106 bus2=E_10_11_13_2_106 Linecode=500_Cu length=1.219200e+02 units=m
New Line.F_E_10_11_13_3_119 bus1=E_10_11_13_3_119 bus2=E_10_11_13_2_119 Linecode=500_Cu length=1.219200e+02 units=m
New Line.F_E_10_11_13_3A bus1=SS_137 bus2=E_10_11_13_3A Linecode=500_Cu length=3.048000e-01 units=m
New Line.F_E_10_11_13_4_119 bus1=E_10_11_13_4_119 bus2=E_10_11_13_3_119 Linecode=500_Cu length=5.334000e+01 units=m
New Line.F_E_10_11_13_5_119 bus1=E_10_11_13_5_119 bus2=E_10_11_13_4_119 Linecode=500_Cu length=7.620000e+01 units=m
New Line.F_E_10_11_14_1 bus1=SS_17_RC bus2=E_10_11_14_1 Linecode=500_Cu length=1.478280e+02 units=m
New Line.F_E_10_11_14_106 bus1=E_10_11_15_106 bus2=E_10_11_14_106 Linecode=500_Cu length=1.219200e+02 units=m
New Line.F_E_10_11_14_109 bus1=E_10_11_15_109 bus2=E_10_11_14_109 Linecode=500_Cu length=1.219200e+02 units=m
New Line.F_E_10_11_14_110 bus1=E_10_11_15_110 bus2=E_10_11_14_110 Linecode=500_Cu length=1.219200e+02 units=m
New Line.F_E_10_11_14_119 bus1=E_10_11_15_119 bus2=E_10_11_14_119 Linecode=500_Cu length=1.219200e+02 units=m
New Line.F_E_10_11_15_106 bus1=REVELLE_2 bus2=E_10_11_15_106 Linecode=500_Cu length=9.144000e+01 units=m
New Line.F_E_10_11_15_109 bus1=REVELLE_1 bus2=E_10_11_15_109 Linecode=500_Cu length=9.144000e+01 units=m
New Line.F_E_10_11_15_110 bus1=E_10_11_15_110 bus2=REVELLE_2 Linecode=500_Cu length=9.144000e+01 units=m
New Line.F_E_10_11_15_119 bus1=E_10_11_15_119 bus2=REVELLE_1 Linecode=500_Cu length=9.144000e+01 units=m
New Line.F_E_10_11_2_1_202 bus1=E_10_11_2_202 bus2=E_10_11_2_1_202 Linecode=4_0_Cu length=8.229600e+01 units=m
New Line.F_E_10_11_2_109 bus1=E_10_11_3_109 bus2=E_10_11_2_109 Linecode=500_Cu length=1.280160e+02 units=m
New Line.F_E_10_11_2_110 bus1=E_10_11_3_110 bus2=E_10_11_2_110 Linecode=500_Cu length=1.280160e+02 units=m
New Line.F_E_10_11_202 bus1=E_10_11_2_202 bus2=E_10_11_202 Linecode=500_Cu length=9.448800e+01 units=m
New Line.F_E_10_11_205 bus1=E_10_11_2_205 bus2=E_10_11_205 Linecode=4_0_Cu length=9.448800e+01 units=m
New Line.F_E_10_11_3_109 bus1=E_10_11_4_109 bus2=E_10_11_3_109 Linecode=500_Cu length=8.077200e+01 units=m
New Line.F_E_10_11_3_110 bus1=E_10_11_4_110 bus2=E_10_11_3_110 Linecode=500_Cu length=8.077200e+01 units=m
New Line.F_E_10_11_3_202 bus1=E_10_11_4_202 bus2=E_10_11_3_202 Linecode=4_0_Cu length=8.077200e+01 units=m
New Line.F_E_10_11_4_109 bus1=E_10_11_5_109 bus2=E_10_11_4_109 Linecode=500_Cu length=1.310640e+02 units=m
New Line.F_E_10_11_4_110 bus1=E_10_11_5_110 bus2=E_10_11_4_110 Linecode=500_Cu length=1.310640e+02 units=m
New Line.F_E_10_11_5_109 bus1=E_10_11_6_109 bus2=E_10_11_5_109 Linecode=500_Cu length=1.264920e+02 units=m
New Line.F_E_10_11_5_110 bus1=E_10_11_6_110 bus2=E_10_11_5_110 Linecode=500_Cu length=1.264920e+02 units=m
New Line.F_E_10_11_6_109 bus1=E_10_11_7_109 bus2=E_10_11_6_109 Linecode=500_Cu length=1.386840e+02 units=m
New Line.F_E_10_11_6_110 bus1=E_10_11_7_110 bus2=E_10_11_6_110 Linecode=500_Cu length=1.386840e+02 units=m
New Line.F_E_10_11_7_109 bus1=E_10_11_8_109 bus2=E_10_11_7_109 Linecode=500_Cu length=1.371600e+02 units=m
New Line.F_E_10_11_7_110 bus1=E_10_11_8_110 bus2=E_10_11_7_110 Linecode=500_Cu length=1.371600e+02 units=m
New Line.F_E_10_11_8_109 bus1=E_10_11_9_109 bus2=E_10_11_8_109 Linecode=500_Cu length=1.386840e+02 units=m
New Line.F_E_10_11_8_110 bus1=E_10_11_9_110 bus2=E_10_11_8_110 Linecode=500_Cu length=1.386840e+02 units=m
New Line.F_E_10_11_9_109 bus1=E_10_11_10_109 bus2=E_10_11_9_109 Linecode=500_Cu length=1.508760e+02 units=m
New Line.F_E_10_11_9_110 bus1=E_10_11_10_110 bus2=E_10_11_9_110 Linecode=500_Cu length=1.508760e+02 units=m
New Line.F_E_10_113_203 bus1=E_10_11_3_202 bus2=E_10_11_2_202 Linecode=4_0_Cu length=1.280160e+02 units=m
New Line.F_E_10_12_202 bus1=E_10_11_202 bus2=E_10_12_202 Linecode=500_Cu length=1.066800e+02 units=m
New Line.F_E_10_12_205 bus1=E_10_11_205 bus2=E_10_12_205 Linecode=500_Cu length=1.066800e+02 units=m
New Line.F_E_10_2_203 bus1=E_10_8_5_203 bus2=E_10_2_203 Linecode=4_0_Cu length=9.144000e+01 units=m
New Line.F_E_10_2_204 bus1=E_10_8_5_204 bus2=E_10_2_204 Linecode=4_0_Cu length=9.144000e+01 units=m
New Line.F_E_10_202 bus1=E_10_A_202 bus2=E_10_202 Linecode=500_Cu length=4.572000e+00 units=m
New Line.F_E_10_205 bus1=E_10_A_205 bus2=E_10_205 Linecode=500_Cu length=4.572000e+00 units=m
New Line.F_E_10_8_1_203 bus1=E_10_A_203 bus2=E_10_8_1_203 Linecode=4_0_Cu length=6.858000e+01 units=m
New Line.F_E_10_8_1_204 bus1=E_10_A_204 bus2=E_10_8_1_204 Linecode=4_0_Cu length=6.858000e+01 units=m
New Line.F_E_10_8_109 bus1=E_10_9_109 bus2=E_10_8_109 Linecode=500_Cu length=1.447800e+02 units=m
New Line.F_E_10_8_110 bus1=E_10_9_110 bus2=E_10_8_110 Linecode=500_Cu length=1.447800e+02 units=m
New Line.F_E_10_8_2_1_203 bus1=E_10_8_1_203 bus2=E_10_8_2_1_203 Linecode=4_0_Cu length=2.133600e+01 units=m
New Line.F_E_10_8_2_1_204 bus1=E_10_8_1_204 bus2=E10_8_2_1_204 Linecode=4_0_Cu length=2.133600e+01 units=m
New Line.F_E_10_8_2_203 bus1=E_10_8_2_1_203 bus2=E_10_8_2_203 Linecode=4_0_Cu length=9.753600e+01 units=m
New Line.F_E_10_8_2_204 bus1=E10_8_2_1_204 bus2=E_10_8_2_204 Linecode=4_0_Cu length=9.753600e+01 units=m
New Line.F_E_10_8_202 bus1=E_10_9_202 bus2=E_10_8_202 Linecode=500_Cu length=1.447800e+02 units=m
New Line.F_E_10_8_205 bus1=E_10_9_205 bus2=E_10_8_205 Linecode=500_Cu length=1.447800e+02 units=m
New Line.F_E_10_8_3_203 bus1=SB_E_10_8_3_203 bus2=E_10_8_3_203 Linecode=4_0_Cu length=4.267200e+01 units=m
New Line.F_E_10_8_3_204 bus1=SB_E_10_8_3_204 bus2=E_10_8_3_204 Linecode=4_0_Cu length=4.267200e+01 units=m
New Line.F_E_10_8_4_203 bus1=E_10_8_3_203 bus2=E_10_8_4_203 Linecode=4_0_Cu length=1.005840e+02 units=m
New Line.F_E_10_8_4_204 bus1=E_10_8_3_204 bus2=E_10_8_4_204 Linecode=4_0_Cu length=1.005840e+02 units=m
New Line.F_E_10_8_5_203 bus1=E_10_8_4_203 bus2=E_10_8_5_203 Linecode=4_0_Cu length=2.133600e+01 units=m
New Line.F_E_10_8_5_204 bus1=E_10_8_4_204 bus2=E_10_8_5_204 Linecode=4_0_Cu length=2.133600e+01 units=m
New Line.F_E_10_9_109 bus1=E_10_10_109 bus2=E_10_9_109 Linecode=500_Cu length=6.096000e+01 units=m
New Line.F_E_10_9_110 bus1=E_10_10_110 bus2=E_10_9_110 Linecode=500_Cu length=6.096000e+01 units=m
New Line.F_E_10_9_202 bus1=E_10_10_202 bus2=E_10_9_202 Linecode=500_Cu length=6.096000e+01 units=m
New Line.F_E_10_9_205 bus1=E_10_10_205 bus2=E_10_9_205 Linecode=500_Cu length=6.096000e+01 units=m
New Line.F_E_10_A_109 bus1=E_10_8_109 bus2=E_10_A_109 Linecode=500_Cu length=3.810000e+01 units=m
New Line.F_E_10_A_2 bus1=E_10_A_203 bus2=SIO_2_SUB Linecode=500_Cu length=7.620000e+00 units=m
New Line.F_E_10_A_202 bus1=E_10_8_202 bus2=E_10_A_202 Linecode=500_Cu length=3.810000e+01 units=m
New Line.F_E_10_A_205 bus1=E_10_8_205 bus2=E_10_A_205 Linecode=500_Cu length=3.810000e+01 units=m
New Line.F_E_10_A_3 bus1=E_10_A_204 bus2=SIO_1_SUB Linecode=500_Cu length=7.620000e+00 units=m
New Line.F_E_10A_110 bus1=E_10_8_110 bus2=E_10_A_110 Linecode=500_Cu length=3.810000e+01 units=m
New Line.F_E_11_0_307 bus1=E_11_0_307 bus2=N_CAMPUS_A Linecode=500_Cu length=8.382000e+01 units=m
New Line.F_E_11_0_338 bus1=E_11_0_338 bus2=N_CAMPUS_C Linecode=500_Cu length=8.382000e+01 units=m
New Line.F_E_11_1_307 bus1=E_11_1_307 bus2=E_11_0_307 Linecode=500_Cu length=1.066800e+02 units=m
New Line.F_E_11_1_338 bus1=E_11_1_338 bus2=E_11_0_338 Linecode=500_Cu length=1.066800e+02 units=m
New Line.F_E_11_2_307 bus1=E_11_2_307 bus2=E_11_1_307 Linecode=500_Cu length=1.676400e+02 units=m
New Line.F_E_11_3_307 bus1=E_11_3_307 bus2=E_11_2_307 Linecode=500_Cu length=1.493520e+02 units=m
New Line.F_E_11_3_338 bus1=E_11_3_338 bus2=E_11_2_338 Linecode=500_Cu length=1.493520e+02 units=m
New Line.F_E_11_4_307 bus1=E_11_4_307 bus2=E_11_3_307 Linecode=500_Cu length=1.524000e+02 units=m
New Line.F_E_11_4_338 bus1=E_11_4_338 bus2=E_11_3_338 Linecode=500_Cu length=1.524000e+02 units=m
New Line.F_E_17_3_302 bus1=E_7_17_3_302 bus2=E_7_17_302 Linecode=500_Cu length=7.315200e+01 units=m
New Line.F_E_17_3_303 bus1=E_7_17_3_303 bus2=E_7_17_303 Linecode=500_Cu length=7.315200e+01 units=m
New Line.F_E_18_1_15 bus1=E_7_18_1_15 bus2=E_7_18_15 Linecode=500_Cu length=5.181600e+01 units=m