
New LineCode.750a
~ nphases=1
~ r1=0.05800
~ x1=0.12060
~ r0=0.17840
~ x0=0.40470
~ C1=3.40000
~ C0=1.60000
~ units=none
~ rmatrix="0.03934840 |"
~ xmatrix="0.02733673 |"
~ cmatrix="15.00000000 |"
~ baseFreq=60
~ normamps=580
~ emergamps=580 1.25 *
~ faultrate=0.1
~ pctperm=20
~ repair=3
~ Kron=N
~ Rg=0.01805
~ Xg=0.15508
~ rho=100
~ neutral=0
