Clear

New Circuit.SDGE_1 bus1=SDGE_1 basekv=69 pu=1 angle=0 frequency=60 MVAsc3=100 MVAsc1=100 x1r1=20 x0r0=20 BaseFreq=60
New Line.FD_EASTCAMPUS_1 bus1=16 bus2=18 Units=none Length=0.1 R1=0.00405 X1=0.01097 R0=0.02317 X0=0.01703 C1=0 C0=0 Normamps=1678.95
New Line.FD_EASTCAMPUS_2 bus1=17 bus2=19 Units=none Length=0.1 R1=0.00405 X1=0.01097 R0=0.02317 X0=0.01703 C1=0 C0=0 Normamps=1678.95
New Line.FD_EASTCAMPUS_3 bus1=21 bus2=20 Units=none Length=0.1 R1=0.00405 X1=0.01097 R0=0.02317 X0=0.01703 C1=0 C0=0 Normamps=1678.95
New Line.FD_EC38_E50 bus1=39 bus2=85 Units=none Length=0.05 R1=0.02327 X1=0.0456 R0=0.0806 X0=0.0487 C1=0 C0=0 Normamps=391.3
New Line.FD_EC37_E50 bus1=38 bus2=109 Units=none Length=0.05 R1=0.02327 X1=0.0456 R0=0.0806 X0=0.0487 C1=0 C0=0 Normamps=391.3
New Line.FD_E50_SWSTA71_1 bus1=85 bus2=88 Units=none Length=0.12 R1=0.02327 X1=0.0456 R0=0.0806 X0=0.0487 C1=0 C0=0 Normamps=391.3
New Line.FD_EC10_E50 bus1=46 bus2=86 Units=none Length=0.05 R1=0.02327 X1=0.0456 R0=0.0806 X0=0.0487 C1=0 C0=0 Normamps=391.3
New Line.FD_E50_SWSTA71_2 bus1=86 bus2=89 Units=none Length=0.12 R1=0.02327 X1=0.0456 R0=0.0806 X0=0.0487 C1=0 C0=0 Normamps=391.3
New Line.95 bus1=EAST_CAMPUS_1 bus2=97 Units=none Length=0.03 R1=0.0055 X1=0.0041 R0=0.06336 X0=0.0111 C1=0 C0=0 Normamps=1760
New Line.FD_XFMR283 bus1=104 bus2=99 Units=none Length=0.02 R1=0.02327 X1=0.0456 R0=0.0806 X0=0.0487 C1=0 C0=0 Normamps=334.4
New Line.FD_E50_E53_3 bus1=85 bus2=112 Units=none Length=1.08 R1=0.02327 X1=0.0456 R0=0.0806 X0=0.0487 C1=0 C0=0 Normamps=391.3
New Line.FD_E50_E53_4 bus1=86 bus2=113 Units=none Length=1.08 R1=0.02327 X1=0.0456 R0=0.0806 X0=0.0487 C1=0 C0=0 Normamps=391.3
New Line.FD_E50_E53_5 bus1=109 bus2=111 Units=none Length=1.08 R1=0.02327 X1=0.0456 R0=0.0806 X0=0.0487 C1=0 C0=0 Normamps=391.3
New Line.FD_EC13_E50 bus1=49 bus2=115 Units=none Length=0.05 R1=0.02327 X1=0.0456 R0=0.0806 X0=0.0487 C1=0 C0=0 Normamps=391.3
New Line.FD_E50_E53_1 bus1=115 bus2=117 Units=none Length=1.08 R1=0.02327 X1=0.0456 R0=0.0806 X0=0.0487 C1=0 C0=0 Normamps=391.3
New Line.FD_EC6_E50 bus1=42 bus2=119 Units=none Length=0.05 R1=0.02327 X1=0.0456 R0=0.0806 X0=0.0487 C1=0 C0=0 Normamps=391.3
New Line.FD_E50_E53_6 bus1=119 bus2=121 Units=none Length=1.08 R1=0.02327 X1=0.0456 R0=0.0806 X0=0.0487 C1=0 C0=0 Normamps=391.3
New Line.FD_EC9_E50 bus1=51 bus2=123 Units=none Length=0.05 R1=0.02327 X1=0.0456 R0=0.0806 X0=0.0487 C1=0 C0=0 Normamps=391.3
New Line.FD_E50_E53_2 bus1=123 bus2=125 Units=none Length=1.08 R1=0.02327 X1=0.0456 R0=0.0806 X0=0.0487 C1=0 C0=0 Normamps=391.3
New Line.FD_E53_SWSTA51_1 bus1=91 bus2=112 Units=none Length=0.09 R1=0.02327 X1=0.0456 R0=0.0806 X0=0.0487 C1=0 C0=0 Normamps=391.3
New Line.FD_E53_SWSTA51_2 bus1=90 bus2=113 Units=none Length=0.09 R1=0.02327 X1=0.0456 R0=0.0806 X0=0.0487 C1=0 C0=0 Normamps=391.3
New Line.FD_E53_E531_2 bus1=111 bus2=144 Units=none Length=0.528 R1=0.02327 X1=0.0456 R0=0.0806 X0=0.0487 C1=0 C0=0 Normamps=391.3
New Line.FD_E53_E531_1 bus1=117 bus2=143 Units=none Length=0.528 R1=0.02327 X1=0.0456 R0=0.0806 X0=0.0487 C1=0 C0=0 Normamps=391.3
New Line.FD_E53_E54_1 bus1=125 bus2=149 Units=none Length=0.7 R1=0.02327 X1=0.0456 R0=0.0806 X0=0.0487 C1=0 C0=0 Normamps=391.3
New Line.FD_E53_E54_2 bus1=112 bus2=150 Units=none Length=0.7 R1=0.02327 X1=0.0456 R0=0.0806 X0=0.0487 C1=0 C0=0 Normamps=391.3
New Line.FD_E53_E54_3 bus1=113 bus2=151 Units=none Length=0.7 R1=0.02327 X1=0.0456 R0=0.0806 X0=0.0487 C1=0 C0=0 Normamps=391.3
New Line.FD_E53_E54_4 bus1=121 bus2=152 Units=none Length=0.7 R1=0.02327 X1=0.0456 R0=0.0806 X0=0.0487 C1=0 C0=0 Normamps=391.3
New Line.FD_THORTON_ST_LIGH bus1=THORTON_ST_LIGHT bus2=150 Units=none Length=0.15 R1=0.02327 X1=0.0456 R0=0.0806 X0=0.0487 C1=0 C0=0 Normamps=391.3
New Line.FD_E54_E55_1 bus1=149 bus2=156 Units=none Length=0.41 R1=0.02327 X1=0.0456 R0=0.0806 X0=0.0487 C1=0 C0=0 Normamps=391.3
New Line.FD_E54_E55_2 bus1=150 bus2=157 Units=none Length=0.41 R1=0.02327 X1=0.0456 R0=0.0806 X0=0.0487 C1=0 C0=0 Normamps=391.3
New Line.FD_E54_E55_3 bus1=151 bus2=158 Units=none Length=0.41 R1=0.02327 X1=0.0456 R0=0.0806 X0=0.0487 C1=0 C0=0 Normamps=391.3
New Line.FD_E54_E55_4 bus1=152 bus2=159 Units=none Length=0.41 R1=0.02327 X1=0.0456 R0=0.0806 X0=0.0487 C1=0 C0=0 Normamps=391.3
New Line.FD_E55_E58_2 bus1=159 bus2=164 Units=none Length=1.23 R1=0.02327 X1=0.0456 R0=0.0806 X0=0.0487 C1=0 C0=0 Normamps=391.3
New Line.FD_E55_E58_3 bus1=156 bus2=165 Units=none Length=1.23 R1=0.02327 X1=0.0456 R0=0.0806 X0=0.0487 C1=0 C0=0 Normamps=391.3
New Line.FD_T049 bus1=3258 bus2=172 Units=none Length=0.47 R1=0.02327 X1=0.0456 R0=0.0806 X0=0.0487 C1=0 C0=0 Normamps=391.3
New Line.FD_T51 bus1=3262 bus2=173 Units=none Length=0.45 R1=0.02327 X1=0.0456 R0=0.0806 X0=0.0487 C1=0 C0=0 Normamps=391.3
New Line.FD_SWSTA96_1 bus1=165 bus2=3283 Units=none Length=0.03 R1=0.02327 X1=0.0456 R0=0.0806 X0=0.0487 C1=0 C0=0 Normamps=391.3
New Line.FD_SWSTA96_2 bus1=164 bus2=3282 Units=none Length=0.03 R1=0.02327 X1=0.0456 R0=0.0806 X0=0.0487 C1=0 C0=0 Normamps=391.3
New Line.FD_T53 bus1=3260 bus2=180 Units=none Length=0.43 R1=0.02327 X1=0.0456 R0=0.0806 X0=0.0487 C1=0 C0=0 Normamps=391.3
New Line.FD_E55_SWST76_2 bus1=232 bus2=157 Units=none Length=0.12 R1=0.02327 X1=0.0456 R0=0.0806 X0=0.0487 C1=0 C0=0 Normamps=391.3
New Line.FD_E55_SWST76_1 bus1=230 bus2=158 Units=none Length=0.12 R1=0.02327 X1=0.0456 R0=0.0806 X0=0.0487 C1=0 C0=0 Normamps=391.3
New Line.FD_SHILEY_EYE bus1=214 bus2=218 Units=none Length=0.37 R1=0.02327 X1=0.0456 R0=0.0806 X0=0.0487 C1=0 C0=0 Normamps=391.3
New Line.FD_E55_SWST80_1 bus1=234 bus2=157 Units=none Length=0.1 R1=0.02327 X1=0.0456 R0=0.0806 X0=0.0487 C1=0 C0=0 Normamps=391.3
New Line.FD_E55_SWST80_2 bus1=236 bus2=158 Units=none Length=0.1 R1=0.02327 X1=0.0456 R0=0.0806 X0=0.0487 C1=0 C0=0 Normamps=391.3
New Line.FD_XFMR307 bus1=243 bus2=221 Units=none Length=0.04 R1=0.02327 X1=0.0456 R0=0.0806 X0=0.0487 C1=0 C0=0 Normamps=391.3
New Line.FD_XFMR308 bus1=242 bus2=223 Units=none Length=0.015 R1=0.02327 X1=0.0456 R0=0.0806 X0=0.0487 C1=0 C0=0 Normamps=391.3
New Line.FD_GEN_DIESEIL_1 bus1=259 bus2=GEN_DIESEL_1 Units=none Length=0.08 R1=0.08579 X1=0.0566 R0=0.14312 X0=0.0852 C1=0 C0=0 Normamps=177.45
New Line.FD_GEN_DIESEIL_2 bus1=260 bus2=GEN_DIESEL_2 Units=none Length=0.08 R1=0.08579 X1=0.0566 R0=0.14312 X0=0.0852 C1=0 C0=0 Normamps=177.45
New Line.FD_E531_ECCP_ME bus1=143 bus2=273 Units=none Length=0.04 R1=0.02327 X1=0.0456 R0=0.0806 X0=0.0487 C1=0 C0=0 Normamps=391.3
New Line.FD_E531_ECCP_MW bus1=144 bus2=272 Units=none Length=0.04 R1=0.02327 X1=0.0456 R0=0.0806 X0=0.0487 C1=0 C0=0 Normamps=391.3
New Line.FD_XFMR_335 bus1=277 bus2=279 Units=none Length=0.01 R1=0.02327 X1=0.0456 R0=0.0806 X0=0.0487 C1=0 C0=0 Normamps=391.3
New Line.FD_XFMR_336 bus1=278 bus2=280 Units=none Length=0.045 R1=0.02327 X1=0.0456 R0=0.0806 X0=0.0487 C1=0 C0=0 Normamps=391.3
New Line.FD_ECCP_E3_1 bus1=292 bus2=288 Units=none Length=0.59 R1=0.02327 X1=0.0456 R0=0.0806 X0=0.0487 C1=0 C0=0 Normamps=391.3
New Line.FD_ECCP_E3_2 bus1=291 bus2=290 Units=none Length=0.59 R1=0.02327 X1=0.0456 R0=0.0806 X0=0.0487 C1=0 C0=0 Normamps=391.3
New Line.FD_XFMR310 bus1=225 bus2=308 Units=none Length=0.05 R1=0.02327 X1=0.0456 R0=0.0806 X0=0.0487 C1=0 C0=0 Normamps=391.3
New Line.FD_XFMR311 bus1=227 bus2=309 Units=none Length=0.05 R1=0.02327 X1=0.0456 R0=0.0806 X0=0.0487 C1=0 C0=0 Normamps=391.3
New Line.FD_SWSTA78_E3 bus1=314 bus2=291 Units=none Length=0.82 R1=0.02327 X1=0.0456 R0=0.0806 X0=0.0487 C1=0 C0=0 Normamps=391.3
New Line.FD_SWSTA79_E3 bus1=315 bus2=292 Units=none Length=0.82 R1=0.02327 X1=0.0456 R0=0.0806 X0=0.0487 C1=0 C0=0 Normamps=391.3
New Line.FD_TIE_78_79 bus1=321 bus2=322 Units=none Length=0.005 R1=0.02327 X1=0.0456 R0=0.0806 X0=0.0487 C1=0 C0=0 Normamps=391.3
New Line.FD_SHILEY_EMERG bus1=310 bus2=229 Units=none Length=0.05 R1=0.02327 X1=0.0456 R0=0.0806 X0=0.0487 C1=0 C0=0 Normamps=391.3
New Line.FD_SWSTA77_E3_1 bus1=317 bus2=291 Units=none Length=0.03 R1=0.02327 X1=0.0456 R0=0.0806 X0=0.0487 C1=0 C0=0 Normamps=391.3
New Line.FD_SWSTA77_E3_2 bus1=316 bus2=292 Units=none Length=0.03 R1=0.02327 X1=0.0456 R0=0.0806 X0=0.0487 C1=0 C0=0 Normamps=391.3
New Line.FD_EC4_E61 bus1=40 bus2=341 Units=none Length=0.36 R1=0.00582 X1=0.0114 R0=0.02015 X0=0.01218 C1=0 C0=0 Normamps=1565.2
New Line.FD_EC19_E61 bus1=41 bus2=340 Units=none Length=0.36 R1=0.00582 X1=0.0114 R0=0.02015 X0=0.01218 C1=0 C0=0 Normamps=1565.2
New Line.FD_EC___E62 bus1=3090 bus2=342 Units=none Length=0.36 R1=0.02327 X1=0.0456 R0=0.0806 X0=0.0487 C1=0 C0=0 Normamps=391.3
New Line.FD_E61_E64_1 bus1=340 bus2=347 Units=none Length=1.23 R1=0.00582 X1=0.0114 R0=0.02015 X0=0.01218 C1=0 C0=0 Normamps=1565.2
New Line.FD_E61_E64_2 bus1=341 bus2=349 Units=none Length=1.23 R1=0.00582 X1=0.0114 R0=0.02015 X0=0.01218 C1=0 C0=0 Normamps=1565.2
New Line.FD_E61_E64_3 bus1=342 bus2=348 Units=none Length=1.23 R1=0.02327 X1=0.0456 R0=0.0806 X0=0.0487 C1=0 C0=0 Normamps=391.3
New Line.FD_E64_E67_1 bus1=347 bus2=350 Units=none Length=1.27 R1=0.00582 X1=0.0114 R0=0.02015 X0=0.01218 C1=0 C0=0 Normamps=1565.2
New Line.FD_E64_E67_2 bus1=349 bus2=353 Units=none Length=1.27 R1=0.00582 X1=0.0114 R0=0.02015 X0=0.01218 C1=0 C0=0 Normamps=1565.2
New Line.FD_E64_E67_3 bus1=348 bus2=351 Units=none Length=1.27 R1=0.02327 X1=0.0456 R0=0.0806 X0=0.0487 C1=0 C0=0 Normamps=391.3
New Line.FD_E67_E611_1 bus1=350 bus2=361 Units=none Length=1.58 R1=0.00582 X1=0.0114 R0=0.02015 X0=0.01218 C1=0 C0=0 Normamps=1565.2
New Line.FD_E67_E611_2 bus1=353 bus2=363 Units=none Length=1.58 R1=0.00582 X1=0.0114 R0=0.02015 X0=0.01218 C1=0 C0=0 Normamps=1565.2
New Line.FD_E67_E611_3 bus1=351 bus2=362 Units=none Length=1.58 R1=0.02327 X1=0.0456 R0=0.0806 X0=0.0487 C1=0 C0=0 Normamps=391.3
New Line.FD_E611_E616_1 bus1=366 bus2=361 Units=none Length=1.93 R1=0.00582 X1=0.0114 R0=0.02015 X0=0.01218 C1=0 C0=0 Normamps=1565.2
New Line.FD_E611_E616_2 bus1=364 bus2=363 Units=none Length=1.93 R1=0.00582 X1=0.0114 R0=0.02015 X0=0.01218 C1=0 C0=0 Normamps=1565.2
New Line.FD_E611_E616_3 bus1=365 bus2=362 Units=none Length=1.93 R1=0.02327 X1=0.0456 R0=0.0806 X0=0.0487 C1=0 C0=0 Normamps=391.3
New Line.FD_E616_E13_1 bus1=371 bus2=366 Units=none Length=0.23 R1=0.00582 X1=0.0114 R0=0.02015 X0=0.01218 C1=0 C0=0 Normamps=1565.2
New Line.FD_E616_E13_2 bus1=372 bus2=364 Units=none Length=0.23 R1=0.00582 X1=0.0114 R0=0.02015 X0=0.01218 C1=0 C0=0 Normamps=1565.2
New Line.FD_E616_E13_3 bus1=373 bus2=365 Units=none Length=0.23 R1=0.02327 X1=0.0456 R0=0.0806 X0=0.0487 C1=0 C0=0 Normamps=391.3
New Line.FD_EC7_E75 bus1=52 bus2=53 Units=none Length=1.475 R1=0.02327 X1=0.0456 R0=0.0806 X0=0.0487 C1=0 C0=0 Normamps=391.3
New Line.FD_EC35_E75 bus1=36 bus2=54 Units=none Length=1.475 R1=0.02327 X1=0.0456 R0=0.0806 X0=0.0487 C1=0 C0=0 Normamps=391.3
New Line.FD_EC11_E75 bus1=47 bus2=55 Units=none Length=1.475 R1=0.00776 X1=0.0152 R0=0.02687 X0=0.01623 C1=0 C0=0 Normamps=1173.9
New Line.FD_EC8_E75 bus1=44 bus2=56 Units=none Length=1.475 R1=0.00776 X1=0.0152 R0=0.02687 X0=0.01623 C1=0 C0=0 Normamps=1173.9
New Line.FD_E75_E76_1 bus1=60 bus2=53 Units=none Length=0.625 R1=0.02327 X1=0.0456 R0=0.0806 X0=0.0487 C1=0 C0=0 Normamps=391.3
New Line.FD_E75_E76_2 bus1=59 bus2=54 Units=none Length=0.625 R1=0.02327 X1=0.0456 R0=0.0806 X0=0.0487 C1=0 C0=0 Normamps=391.3
New Line.FD_E75_E76_3 bus1=58 bus2=55 Units=none Length=0.625 R1=0.00776 X1=0.0152 R0=0.02687 X0=0.01623 C1=0 C0=0 Normamps=1173.9
New Line.FD_E75_SWSTA19_1 bus1=394 bus2=53 Units=none Length=0.625 R1=0.02327 X1=0.0456 R0=0.0806 X0=0.0487 C1=0 C0=0 Normamps=391.3
New Line.FD_E75_SWSTA19_2 bus1=395 bus2=54 Units=none Length=0.625 R1=0.02327 X1=0.0456 R0=0.0806 X0=0.0487 C1=0 C0=0 Normamps=391.3
New Line.FD_E74_E7B bus1=402 bus2=56 Units=none Length=0.792 R1=0.00776 X1=0.0152 R0=0.02687 X0=0.01623 C1=0 C0=0 Normamps=1173.9
New Line.FD_EC33_E7B bus1=403 bus2=34 Units=none Length=2.376 R1=0.00776 X1=0.0152 R0=0.02687 X0=0.01623 C1=0 C0=0 Normamps=1173.9
New Line.FD_E7B_E7C_1 bus1=405 bus2=402 Units=none Length=0.528 R1=0.00776 X1=0.0152 R0=0.02687 X0=0.01623 C1=0 C0=0 Normamps=1173.9
New Line.FD_E7B_E7C_2 bus1=404 bus2=403 Units=none Length=0.528 R1=0.00776 X1=0.0152 R0=0.02687 X0=0.01623 C1=0 C0=0 Normamps=1173.9
New Line.FD_E76_E77A_1 bus1=63 bus2=60 Units=none Length=0.04 R1=0.02327 X1=0.0456 R0=0.0806 X0=0.0487 C1=0 C0=0 Normamps=391.3
New Line.FD_E76_E77A_2 bus1=62 bus2=59 Units=none Length=0.04 R1=0.02327 X1=0.0456 R0=0.0806 X0=0.0487 C1=0 C0=0 Normamps=391.3
New Line.FD_E76_E77A_3 bus1=61 bus2=58 Units=none Length=0.04 R1=0.00776 X1=0.0152 R0=0.02687 X0=0.01623 C1=0 C0=0 Normamps=1173.9
New Line.FD_E77A_E79_1 bus1=66 bus2=63 Units=none Length=1.01 R1=0.02327 X1=0.0456 R0=0.0806 X0=0.0487 C1=0 C0=0 Normamps=391.3
New Line.FD_E77A_E79_2 bus1=65 bus2=62 Units=none Length=1.01 R1=0.02327 X1=0.0456 R0=0.0806 X0=0.0487 C1=0 C0=0 Normamps=391.3
New Line.FD_E77A_E79_3 bus1=516 bus2=61 Units=none Length=1.01 R1=0.00776 X1=0.0152 R0=0.02687 X0=0.01623 C1=0 C0=0 Normamps=1173.9
New Line.FD_E77A_E762_1 bus1=423 bus2=63 Units=none Length=0.625 R1=0.02327 X1=0.0456 R0=0.0806 X0=0.0487 C1=0 C0=0 Normamps=391.3
New Line.FD_E77A_E762_2 bus1=424 bus2=62 Units=none Length=0.625 R1=0.02327 X1=0.0456 R0=0.0806 X0=0.0487 C1=0 C0=0 Normamps=391.3
New Line.FD_E762_SWSTA20_2 bus1=397 bus2=423 Units=none Length=0.085 R1=0.02327 X1=0.0456 R0=0.0806 X0=0.0487 C1=0 C0=0 Normamps=391.3
New Line.FD_E762_SWSTA20_1 bus1=396 bus2=424 Units=none Length=0.085 R1=0.02327 X1=0.0456 R0=0.0806 X0=0.0487 C1=0 C0=0 Normamps=391.3
New Line.FD_XFMR171 bus1=437 bus2=436 Units=none Length=0.03 R1=0.02327 X1=0.0456 R0=0.0806 X0=0.0487 C1=0 C0=0 Normamps=334.4
New Line.FD_E762_E763_1 bus1=426 bus2=423 Units=none Length=0.625 R1=0.02327 X1=0.0456 R0=0.0806 X0=0.0487 C1=0 C0=0 Normamps=391.3
New Line.FD_E762_E763_2 bus1=425 bus2=424 Units=none Length=0.625 R1=0.02327 X1=0.0456 R0=0.0806 X0=0.0487 C1=0 C0=0 Normamps=391.3
New Line.FD_XFMR241 bus1=438 bus2=439 Units=none Length=0.03 R1=0.02327 X1=0.0456 R0=0.0806 X0=0.0487 C1=0 C0=0 Normamps=334.4
New Line.FD_E763_SWSTAMH_1 bus1=399 bus2=426 Units=none Length=0.05 R1=0.02327 X1=0.0456 R0=0.0806 X0=0.0487 C1=0 C0=0 Normamps=391.3
New Line.FD_E763_SWSTAMH_2 bus1=398 bus2=425 Units=none Length=0.05 R1=0.02327 X1=0.0456 R0=0.0806 X0=0.0487 C1=0 C0=0 Normamps=391.3
New Line.FD_XFMR172 bus1=440 bus2=441 Units=none Length=0.01 R1=0.02327 X1=0.0456 R0=0.0806 X0=0.0487 C1=0 C0=0 Normamps=334.4
New Line.FD_E763_GREENH_1 bus1=401 bus2=426 Units=none Length=0.48 R1=0.02327 X1=0.0456 R0=0.0806 X0=0.0487 C1=0 C0=0 Normamps=391.3
New Line.FD_E763_GREENH_2 bus1=400 bus2=425 Units=none Length=0.48 R1=0.02327 X1=0.0456 R0=0.0806 X0=0.0487 C1=0 C0=0 Normamps=391.3
New Line.FD_E79_SWSTA13_1 bus1=407 bus2=66 Units=none Length=0.025 R1=0.02327 X1=0.0456 R0=0.0806 X0=0.0487 C1=0 C0=0 Normamps=391.3
New Line.FD_E79_SWSTA13_2 bus1=406 bus2=65 Units=none Length=0.025 R1=0.02327 X1=0.0456 R0=0.0806 X0=0.0487 C1=0 C0=0 Normamps=391.3
New Line.FD_E79_SWSTA13_3 bus1=478 bus2=442 Units=none Length=0.15 R1=0.02327 X1=0.0456 R0=0.0806 X0=0.0487 C1=0 C0=0 Normamps=391.3
New Line.FD_CANYON_VIEW bus1=3237 bus2=CANYON_VIEW_FACILITY Units=none Length=0.18 R1=0.02327 X1=0.0456 R0=0.0806 X0=0.0487 C1=0 C0=0 Normamps=391.3
New Line.FD_STA_S_168 bus1=483 bus2=3243 Units=none Length=0.47 R1=0.02327 X1=0.0456 R0=0.0806 X0=0.0487 C1=0 C0=0 Normamps=391.3
New Line.FD_STA_S_167 bus1=492 bus2=483 Units=none Length=0.2 R1=0.02327 X1=0.0456 R0=0.0806 X0=0.0487 C1=0 C0=0 Normamps=391.3
New Line.FD_STA_S_166 bus1=484 bus2=492 Units=none Length=0.42 R1=0.02327 X1=0.0456 R0=0.0806 X0=0.0487 C1=0 C0=0 Normamps=391.3
New Line.FD_STA_S_169 bus1=493 bus2=484 Units=none Length=0.54 R1=0.02327 X1=0.0456 R0=0.0806 X0=0.0487 C1=0 C0=0 Normamps=391.3
New Line.FD_STA_S_170 bus1=490 bus2=493 Units=none Length=0.5 R1=0.02327 X1=0.0456 R0=0.0806 X0=0.0487 C1=0 C0=0 Normamps=391.3
New Line.FD_E79_E710_1 bus1=67 bus2=516 Units=none Length=0.4 R1=0.00776 X1=0.0152 R0=0.02687 X0=0.01623 C1=0 C0=0 Normamps=1173.9
New Line.FD_E79_E710_2 bus1=70 bus2=521 Units=none Length=0.4 R1=0.02327 X1=0.0456 R0=0.0806 X0=0.0487 C1=0 C0=0 Normamps=391.3
New Line.FD_E79_E710_3 bus1=71 bus2=522 Units=none Length=0.4 R1=0.02327 X1=0.0456 R0=0.0806 X0=0.0487 C1=0 C0=0 Normamps=391.3
New Line.FD_NC_TIEA_C bus1=533 bus2=NORT_CAMPUS_C Units=none Length=0.03 R1=0.0055 X1=0.0041 R0=0.06336 X0=0.0111 C1=0 C0=0 Normamps=1760
New Line.FD_E7C_NCMAINC bus1=546 bus2=404 Units=none Length=0.38 R1=0.00776 X1=0.0152 R0=0.02687 X0=0.01623 C1=0 C0=0 Normamps=1173.9
New Line.FD_E7C_NCMAINB bus1=547 bus2=405 Units=none Length=0.38 R1=0.00776 X1=0.0152 R0=0.02687 X0=0.01623 C1=0 C0=0 Normamps=1173.9
New Line.FD_E10_NCMAINA bus1=548 bus2=67 Units=none Length=0.61 R1=0.00776 X1=0.0152 R0=0.02687 X0=0.01623 C1=0 C0=0 Normamps=1173.9
New Line.FD_NC3A_E7C bus1=82 bus2=579 Units=none Length=0.4 R1=0.02327 X1=0.0456 R0=0.0806 X0=0.0487 C1=0 C0=0 Normamps=391.3
New Line.FD_NC3B_E7C bus1=76 bus2=581 Units=none Length=0.38 R1=0.02327 X1=0.0456 R0=0.0806 X0=0.0487 C1=0 C0=0 Normamps=391.3
New Line.FD_NC1A_E7C bus1=80 bus2=583 Units=none Length=0.4 R1=0.02327 X1=0.0456 R0=0.0806 X0=0.0487 C1=0 C0=0 Normamps=391.3
New Line.FD_NC1B_E7C bus1=74 bus2=585 Units=none Length=0.39 R1=0.02327 X1=0.0456 R0=0.0806 X0=0.0487 C1=0 C0=0 Normamps=391.3
New Line.FD_E7C_E710_1 bus1=587 bus2=579 Units=none Length=0.08 R1=0.02327 X1=0.0456 R0=0.0806 X0=0.0487 C1=0 C0=0 Normamps=391.3
New Line.FD_E7C_E710_2 bus1=589 bus2=581 Units=none Length=0.08 R1=0.02327 X1=0.0456 R0=0.0806 X0=0.0487 C1=0 C0=0 Normamps=391.3
New Line.FD_E7C_E710_3 bus1=590 bus2=583 Units=none Length=0.08 R1=0.02327 X1=0.0456 R0=0.0806 X0=0.0487 C1=0 C0=0 Normamps=391.3
New Line.FD_E7C_E710_4 bus1=591 bus2=585 Units=none Length=0.08 R1=0.02327 X1=0.0456 R0=0.0806 X0=0.0487 C1=0 C0=0 Normamps=391.3
New Line.FD_E710_E7111_1 bus1=596 bus2=587 Units=none Length=0.12 R1=0.02327 X1=0.0456 R0=0.0806 X0=0.0487 C1=0 C0=0 Normamps=391.3
New Line.FD_E710_E7111_2 bus1=597 bus2=589 Units=none Length=0.12 R1=0.02327 X1=0.0456 R0=0.0806 X0=0.0487 C1=0 C0=0 Normamps=391.3
New Line.FD_T_067 bus1=602 bus2=596 Units=none Length=0.05 R1=0.02327 X1=0.0456 R0=0.0806 X0=0.0487 C1=0 C0=0 Normamps=391.3
New Line.FD_T_68 bus1=603 bus2=597 Units=none Length=0.05 R1=0.02327 X1=0.0456 R0=0.0806 X0=0.0487 C1=0 C0=0 Normamps=391.3
New Line.FD_T_76 bus1=605 bus2=597 Units=none Length=0.04 R1=0.02327 X1=0.0456 R0=0.0806 X0=0.0487 C1=0 C0=0 Normamps=391.3
New Line.FD_T_75 bus1=604 bus2=596 Units=none Length=0.04 R1=0.02327 X1=0.0456 R0=0.0806 X0=0.0487 C1=0 C0=0 Normamps=391.3
New Line.FD_E710_E711_1 bus1=627 bus2=70 Units=none Length=0.2 R1=0.02327 X1=0.0456 R0=0.0806 X0=0.0487 C1=0 C0=0 Normamps=391.3
New Line.FD_E710_E711_2 bus1=628 bus2=71 Units=none Length=0.2 R1=0.02327 X1=0.0456 R0=0.0806 X0=0.0487 C1=0 C0=0 Normamps=391.3
New Line.FD_NC6B_E711 bus1=627 bus2=79 Units=none Length=0.15 R1=0.02327 X1=0.0456 R0=0.0806 X0=0.0487 C1=0 C0=0 Normamps=391.3
New Line.FD_NC2C_E711 bus1=628 bus2=64 Units=none Length=0.15 R1=0.02327 X1=0.0456 R0=0.0806 X0=0.0487 C1=0 C0=0 Normamps=391.3
New Line.FD_NC3A_E711 bus1=633 bus2=82 Units=none Length=0.15 R1=0.02327 X1=0.0456 R0=0.0806 X0=0.0487 C1=0 C0=0 Normamps=391.3
New Line.FD_NC3B_E711 bus1=634 bus2=76 Units=none Length=0.12 R1=0.02327 X1=0.0456 R0=0.0806 X0=0.0487 C1=0 C0=0 Normamps=391.3
New Line.FD_SWSTA94_2 bus1=606 bus2=634 Units=none Length=0.12 R1=0.02327 X1=0.0456 R0=0.0806 X0=0.0487 C1=0 C0=0 Normamps=391.3
New Line.FD_SWSTA94_1 bus1=607 bus2=633 Units=none Length=0.12 R1=0.02327 X1=0.0456 R0=0.0806 X0=0.0487 C1=0 C0=0 Normamps=391.3
New Line.FD_XFMR326 bus1=652 bus2=651 Units=none Length=0.1 R1=0.02327 X1=0.0456 R0=0.0806 X0=0.0487 C1=0 C0=0 Normamps=391.3
New Line.FD_E711_E712_1 bus1=653 bus2=627 Units=none Length=0.25 R1=0.02327 X1=0.0456 R0=0.0806 X0=0.0487 C1=0 C0=0 Normamps=391.3
New Line.FD_E711_E712_2 bus1=654 bus2=628 Units=none Length=0.25 R1=0.02327 X1=0.0456 R0=0.0806 X0=0.0487 C1=0 C0=0 Normamps=391.3
New Line.FD_E711_E712_3 bus1=655 bus2=633 Units=none Length=0.25 R1=0.02327 X1=0.0456 R0=0.0806 X0=0.0487 C1=0 C0=0 Normamps=391.3
New Line.FD_E711_E712_4 bus1=657 bus2=634 Units=none Length=0.25 R1=0.02327 X1=0.0456 R0=0.0806 X0=0.0487 C1=0 C0=0 Normamps=391.3
New Line.FD_NC2A_E712 bus1=656 bus2=81 Units=none Length=0.55 R1=0.02327 X1=0.0456 R0=0.0806 X0=0.0487 C1=0 C0=0 Normamps=391.3
New Line.FD_NC2B_E712 bus1=658 bus2=75 Units=none Length=0.55 R1=0.02327 X1=0.0456 R0=0.0806 X0=0.0487 C1=0 C0=0 Normamps=391.3
New Line.FD_E712_E7122_1 bus1=666 bus2=653 Units=none Length=0.38 R1=0.02327 X1=0.0456 R0=0.0806 X0=0.0487 C1=0 C0=0 Normamps=391.3
New Line.FD_E712_E7122_2 bus1=667 bus2=654 Units=none Length=0.38 R1=0.02327 X1=0.0456 R0=0.0806 X0=0.0487 C1=0 C0=0 Normamps=391.3
New Line.FD_E7122_SS91_1 bus1=673 bus2=666 Units=none Length=0.22 R1=0.02327 X1=0.0456 R0=0.0806 X0=0.0487 C1=0 C0=0 Normamps=391.3
New Line.FD_E7122_SS91_2 bus1=674 bus2=667 Units=none Length=0.22 R1=0.02327 X1=0.0456 R0=0.0806 X0=0.0487 C1=0 C0=0 Normamps=391.3
New Line.FD_XFMR323 bus1=679 bus2=677 Units=none Length=0.02 R1=0.02327 X1=0.0456 R0=0.0806 X0=0.0487 C1=0 C0=0 Normamps=391.3
New Line.FD_XFMR322 bus1=680 bus2=678 Units=none Length=0.03 R1=0.02327 X1=0.0456 R0=0.0806 X0=0.0487 C1=0 C0=0 Normamps=391.3
New Line.FD_XFMR321 bus1=681 bus2=682 Units=none Length=0.04 R1=0.02327 X1=0.0456 R0=0.0806 X0=0.0487 C1=0 C0=0 Normamps=391.3
New Line.FD_E7122_SS82_1 bus1=676 bus2=666 Units=none Length=0.41 R1=0.02327 X1=0.0456 R0=0.0806 X0=0.0487 C1=0 C0=0 Normamps=391.3
New Line.FD_E7122_SS82_2 bus1=675 bus2=667 Units=none Length=0.41 R1=0.02327 X1=0.0456 R0=0.0806 X0=0.0487 C1=0 C0=0 Normamps=391.3
New Line.FD_XFMR324 bus1=683 bus2=684 Units=none Length=0.48 R1=0.02327 X1=0.0456 R0=0.0806 X0=0.0487 C1=0 C0=0 Normamps=391.3
New Line.FD_XFMR325 bus1=685 bus2=686 Units=none Length=0.48 R1=0.02327 X1=0.0456 R0=0.0806 X0=0.0487 C1=0 C0=0 Normamps=391.3
New Line.FD_XFMR298 bus1=687 bus2=688 Units=none Length=0.25 R1=0.02327 X1=0.0456 R0=0.0806 X0=0.0487 C1=0 C0=0 Normamps=391.3
New Line.FD_XFMR297 bus1=689 bus2=690 Units=none Length=0.25 R1=0.02327 X1=0.0456 R0=0.0806 X0=0.0487 C1=0 C0=0 Normamps=391.3
New Line.FD_NC4B_E712 bus1=659 bus2=77 Units=none Length=0.55 R1=0.02327 X1=0.0456 R0=0.0806 X0=0.0487 C1=0 C0=0 Normamps=391.3
New Line.FD_NC4A_E712 bus1=660 bus2=83 Units=none Length=0.55 R1=0.02327 X1=0.0456 R0=0.0806 X0=0.0487 C1=0 C0=0 Normamps=391.3
New Line.FD_E712_E713_1 bus1=743 bus2=655 Units=none Length=0.375 R1=0.02327 X1=0.0456 R0=0.0806 X0=0.0487 C1=0 C0=0 Normamps=391.3
New Line.FD_E712_E713_2 bus1=744 bus2=656 Units=none Length=0.375 R1=0.02327 X1=0.0456 R0=0.0806 X0=0.0487 C1=0 C0=0 Normamps=391.3
New Line.FD_E712_E713_3 bus1=745 bus2=657 Units=none Length=0.375 R1=0.02327 X1=0.0456 R0=0.0806 X0=0.0487 C1=0 C0=0 Normamps=391.3
New Line.FD_E712_E713_4 bus1=746 bus2=658 Units=none Length=0.375 R1=0.02327 X1=0.0456 R0=0.0806 X0=0.0487 C1=0 C0=0 Normamps=391.3
New Line.FD_E712_E713_5 bus1=747 bus2=659 Units=none Length=0.375 R1=0.02327 X1=0.0456 R0=0.0806 X0=0.0487 C1=0 C0=0 Normamps=391.3
New Line.FD_E712_E713_6 bus1=748 bus2=660 Units=none Length=0.375 R1=0.02327 X1=0.0456 R0=0.0806 X0=0.0487 C1=0 C0=0 Normamps=391.3
New Line.FD_T_69 bus1=655 bus2=762 Units=none Length=0.3 R1=0.02327 X1=0.0456 R0=0.0806 X0=0.0487 C1=0 C0=0 Normamps=391.3
New Line.FD_T_70 bus1=657 bus2=763 Units=none Length=0.3 R1=0.02327 X1=0.0456 R0=0.0806 X0=0.0487 C1=0 C0=0 Normamps=391.3
New Line.FD_E713_E714_1 bus1=749 bus2=743 Units=none Length=0.365 R1=0.02327 X1=0.0456 R0=0.0806 X0=0.0487 C1=0 C0=0 Normamps=391.3
New Line.FD_E713_E714_2 bus1=750 bus2=744 Units=none Length=0.365 R1=0.02327 X1=0.0456 R0=0.0806 X0=0.0487 C1=0 C0=0 Normamps=391.3
New Line.FD_E713_E714_3 bus1=751 bus2=745 Units=none Length=0.365 R1=0.02327 X1=0.0456 R0=0.0806 X0=0.0487 C1=0 C0=0 Normamps=391.3
New Line.FD_E713_E714_4 bus1=752 bus2=746 Units=none Length=0.365 R1=0.02327 X1=0.0456 R0=0.0806 X0=0.0487 C1=0 C0=0 Normamps=391.3
New Line.FD_E713_E714_5 bus1=753 bus2=747 Units=none Length=0.365 R1=0.02327 X1=0.0456 R0=0.0806 X0=0.0487 C1=0 C0=0 Normamps=391.3
New Line.FD_E713_E714_6 bus1=754 bus2=748 Units=none Length=0.365 R1=0.02327 X1=0.0456 R0=0.0806 X0=0.0487 C1=0 C0=0 Normamps=391.3
New Line.FD_E713_SS23_1 bus1=755 bus2=743 Units=none Length=0.06 R1=0.02327 X1=0.0456 R0=0.0806 X0=0.0487 C1=0 C0=0 Normamps=391.3
New Line.FD_E713_SS23_2 bus1=756 bus2=745 Units=none Length=0.06 R1=0.02327 X1=0.0456 R0=0.0806 X0=0.0487 C1=0 C0=0 Normamps=391.3
New Line.FD_T_061 bus1=608 bus2=755 Units=none Length=0.06 R1=0.02327 X1=0.0456 R0=0.0806 X0=0.0487 C1=0 C0=0 Normamps=391.3
New Line.FD_T_62 bus1=609 bus2=756 Units=none Length=0.06 R1=0.02327 X1=0.0456 R0=0.0806 X0=0.0487 C1=0 C0=0 Normamps=391.3
New Line.FD_E714_E717_1 bus1=766 bus2=753 Units=none Length=1.3 R1=0.02327 X1=0.0456 R0=0.0806 X0=0.0487 C1=0 C0=0 Normamps=391.3
New Line.FD_E714_E717_2 bus1=765 bus2=754 Units=none Length=1.3 R1=0.02327 X1=0.0456 R0=0.0806 X0=0.0487 C1=0 C0=0 Normamps=391.3
New Line.FD_E714_E717_3 bus1=764 bus2=749 Units=none Length=1.3 R1=0.02327 X1=0.0456 R0=0.0806 X0=0.0487 C1=0 C0=0 Normamps=391.3
New Line.FD_E714_E717_4 bus1=761 bus2=750 Units=none Length=1.3 R1=0.02327 X1=0.0456 R0=0.0806 X0=0.0487 C1=0 C0=0 Normamps=391.3
New Line.FD_E714_E717_5 bus1=759 bus2=751 Units=none Length=1.3 R1=0.02327 X1=0.0456 R0=0.0806 X0=0.0487 C1=0 C0=0 Normamps=391.3
New Line.FD_E714_E717_6 bus1=758 bus2=752 Units=none Length=1.3 R1=0.02327 X1=0.0456 R0=0.0806 X0=0.0487 C1=0 C0=0 Normamps=391.3
New Line.FD_E717_SS92 bus1=765 bus2=814 Units=none Length=0.1 R1=0.02327 X1=0.0456 R0=0.0806 X0=0.0487 C1=0 C0=0 Normamps=391.3
New Line.FD_E717_SS93 bus1=766 bus2=815 Units=none Length=0.1 R1=0.02327 X1=0.0456 R0=0.0806 X0=0.0487 C1=0 C0=0 Normamps=391.3
New Line.TIE_SS92_SS93 bus1=816 bus2=817 Units=none Length=0.01 R1=0.02327 X1=0.0456 R0=0.0806 X0=0.0487 C1=0 C0=0 Normamps=391.3
New Line.FD_US_1 bus1=826 bus2=828 Units=none Length=0.055 R1=0.02327 X1=0.0456 R0=0.0806 X0=0.0487 C1=0 C0=0 Normamps=391.3
New Line.FD_US_2 bus1=825 bus2=829 Units=none Length=0.035 R1=0.02327 X1=0.0456 R0=0.0806 X0=0.0487 C1=0 C0=0 Normamps=391.3
New Line.FD_HOPKINSPARKING bus1=827 bus2=3170 Units=none Length=0.1 R1=0.02327 X1=0.0456 R0=0.0806 X0=0.0487 C1=0 C0=0 Normamps=391.3
New Line.FD_T_71 bus1=764 bus2=768 Units=none Length=0.685 R1=0.02327 X1=0.0456 R0=0.0806 X0=0.0487 C1=0 C0=0 Normamps=391.3
New Line.FD_T_72 bus1=759 bus2=767 Units=none Length=0.685 R1=0.02327 X1=0.0456 R0=0.0806 X0=0.0487 C1=0 C0=0 Normamps=391.3
New Line.FD_T_74 bus1=767 bus2=772 Units=none Length=0.125 R1=0.02327 X1=0.0456 R0=0.0806 X0=0.0487 C1=0 C0=0 Normamps=391.3
New Line.FD_T_73 bus1=768 bus2=771 Units=none Length=0.125 R1=0.02327 X1=0.0456 R0=0.0806 X0=0.0487 C1=0 C0=0 Normamps=391.3
New Line.FD_E717_E718_1 bus1=764 bus2=870 Units=none Length=0.4 R1=0.02327 X1=0.0456 R0=0.0806 X0=0.0487 C1=0 C0=0 Normamps=391.3
New Line.FD_E717_E718_2 bus1=761 bus2=871 Units=none Length=0.4 R1=0.02327 X1=0.0456 R0=0.0806 X0=0.0487 C1=0 C0=0 Normamps=391.3
New Line.FD_E717_E718_3 bus1=759 bus2=872 Units=none Length=0.4 R1=0.02327 X1=0.0456 R0=0.0806 X0=0.0487 C1=0 C0=0 Normamps=391.3
New Line.FD_E717_E718_4 bus1=758 bus2=873 Units=none Length=0.4 R1=0.02327 X1=0.0456 R0=0.0806 X0=0.0487 C1=0 C0=0 Normamps=391.3
New Line.FD_T_92 bus1=837 bus2=836 Units=none Length=0.085 R1=0.02327 X1=0.0456 R0=0.0806 X0=0.0487 C1=0 C0=0 Normamps=391.3
New Line.FD_E718_SS24_1 bus1=870 bus2=819 Units=none Length=0.02 R1=0.02327 X1=0.0456 R0=0.0806 X0=0.0487 C1=0 C0=0 Normamps=391.3
New Line.FD_E718_SS24_2 bus1=872 bus2=818 Units=none Length=0.02 R1=0.02327 X1=0.0456 R0=0.0806 X0=0.0487 C1=0 C0=0 Normamps=391.3
New Line.FD_E718_E719_1 bus1=870 bus2=877 Units=none Length=0.5 R1=0.02327 X1=0.0456 R0=0.0806 X0=0.0487 C1=0 C0=0 Normamps=391.3
New Line.FD_E718_E719_2 bus1=871 bus2=876 Units=none Length=0.5 R1=0.02327 X1=0.0456 R0=0.0806 X0=0.0487 C1=0 C0=0 Normamps=391.3
New Line.FD_E718_E719_3 bus1=872 bus2=875 Units=none Length=0.5 R1=0.02327 X1=0.0456 R0=0.0806 X0=0.0487 C1=0 C0=0 Normamps=391.3
New Line.FD_E718_E719_4 bus1=873 bus2=874 Units=none Length=0.5 R1=0.02327 X1=0.0456 R0=0.0806 X0=0.0487 C1=0 C0=0 Normamps=391.3
New Line.FD_NC5A_E7C bus1=84 bus2=906 Units=none Length=0.395 R1=0.02327 X1=0.0456 R0=0.0806 X0=0.0487 C1=0 C0=0 Normamps=391.3
New Line.FD_NC5B_E7C bus1=78 bus2=907 Units=none Length=0.37 R1=0.02327 X1=0.0456 R0=0.0806 X0=0.0487 C1=0 C0=0 Normamps=391.3
New Line.FD_E7C_E193_1 bus1=907 bus2=909 Units=none Length=1.05 R1=0.02327 X1=0.0456 R0=0.0806 X0=0.0487 C1=0 C0=0 Normamps=391.3
New Line.FD_E7C_E193_2 bus1=906 bus2=910 Units=none Length=1.05 R1=0.02327 X1=0.0456 R0=0.0806 X0=0.0487 C1=0 C0=0 Normamps=391.3
New Line.FD_T66 bus1=909 bus2=775 Units=none Length=0.025 R1=0.02327 X1=0.0456 R0=0.0806 X0=0.0487 C1=0 C0=0 Normamps=391.3
New Line.FD_T65 bus1=910 bus2=776 Units=none Length=0.025 R1=0.02327 X1=0.0456 R0=0.0806 X0=0.0487 C1=0 C0=0 Normamps=391.3
New Line.FD_E193_E192_1 bus1=924 bus2=909 Units=none Length=0.1 R1=0.02327 X1=0.0456 R0=0.0806 X0=0.0487 C1=0 C0=0 Normamps=391.3
New Line.FD_E193_E192_2 bus1=925 bus2=910 Units=none Length=0.1 R1=0.02327 X1=0.0456 R0=0.0806 X0=0.0487 C1=0 C0=0 Normamps=391.3
New Line.FD_T67 bus1=924 bus2=780 Units=none Length=0.54 R1=0.02327 X1=0.0456 R0=0.0806 X0=0.0487 C1=0 C0=0 Normamps=391.3
New Line.FD_T68 bus1=925 bus2=779 Units=none Length=0.54 R1=0.02327 X1=0.0456 R0=0.0806 X0=0.0487 C1=0 C0=0 Normamps=391.3
New Line.FD_E710_E191_1 bus1=591 bus2=940 Units=none Length=0.47 R1=0.02327 X1=0.0456 R0=0.0806 X0=0.0487 C1=0 C0=0 Normamps=391.3
New Line.FD_E710_E191_2 bus1=590 bus2=939 Units=none Length=0.47 R1=0.02327 X1=0.0456 R0=0.0806 X0=0.0487 C1=0 C0=0 Normamps=391.3
New Line.FD_SS74_3 bus1=839 bus2=838 Units=none Length=0.1 R1=0.02327 X1=0.0456 R0=0.0806 X0=0.0487 C1=0 C0=0 Normamps=391.3