new loadshape.Commercial npts=15, interval=0, csvfile=PeakDay.csv 
new loadshape.Other npts=15, interval=0, csvfile=PeakDay.csv 
new loadshape.AggLoadProfile npts=15, interval=0, csvfile=PeakDay.csv 