Clear
New Circuit.SDGE-1 Bus1=SDGE-1 BasekV=69.00000 pu=1.00000 Angle=0.00000 Frequency=60 MVASC3=100.00000 MVASC1=100.00000 x1r1=20.00000 x0r0=20.00000 BaseFreq=60
New Circuit.SDGE-2 Bus1=SDGE-2 BasekV=69.00000 pu=1.00000 Angle=0.00000 Frequency=60 MVASC3=100.00000 MVASC1=100.00000 x1r1=20.00000 x0r0=20.00000 BaseFreq=60
// Declare Loads
New Load.PREUSS_SCHOOL Bus1=PREUSS_SCHOOL kV=0.48000 kW=142.50000 Kvar=46.83748 Model=1
New Load.EAST_PARKIN_LOT Bus1=EAST_PARKIN_LOT kV=12.47000 kW=10.68750 Kvar=3.51281 Model=1
New Load.THORTON-ST-LIGHT Bus1=THORTON-ST-LIGHT kV=12.47000 kW=10.68750 Kvar=3.51281 Model=1
New Load.HE Bus1=HE kV=0.48000 kW=213.75000 Kvar=70.25623 Model=1
New Load.HW Bus1=HW kV=0.48000 kW=213.75000 Kvar=70.25623 Model=1
New Load.CPA Bus1=CPA kV=0.48000 kW=356.25000 Kvar=117.09371 Model=1
New Load.SHILEY_EYE_C Bus1=SHILEY_EYE_C kV=0.48000 kW=142.50000 Kvar=46.83748 Model=1
New Load.L-XFMR307 Bus1=L-XFMR307 kV=0.48000 kW=284.99999 Kvar=93.67497 Model=1
New Load.L-XFMR308 Bus1=L-XFMR308 kV=0.48000 kW=284.99999 Kvar=93.67497 Model=1
New Load.L-XFMR310 Bus1=L-XFMR310 kV=0.48000 kW=213.74999 Kvar=70.25623 Model=1
New Load.L-XFMR311 Bus1=L-XFMR311 kV=0.48000 kW=213.74999 Kvar=70.25623 Model=1
New Load.SHILEY_EMERG Bus1=SHILEY_EMERG kV=0.48000 kW=42.75000 Kvar=14.05125 Model=1
New Load.XFMR-161 Bus1=XFMR-161 kV=12.47000 kW=21.37500 Kvar=7.02562 Model=1
New Load.CAMPUS_SERV Bus1=CAMPUS_SERV kV=0.48000 kW=213.75000 Kvar=70.25623 Model=1
New Load.EMF Bus1=EMF kV=0.48000 kW=106.87500 Kvar=35.12811 Model=1
New Load.GREENHOUSE Bus1=GREENHOUSE kV=0.48000 kW=42.75000 Kvar=14.05125 Model=1
New Load.CANYON_VIEW_FACILITY Bus1=CANYON_VIEW_FACILITY kV=12.47000 kW=42.75000 Kvar=14.05125 Model=1
New Load.MATTHEWS-168 Bus1=MATTHEWS-168 kV=0.20800 kW=71.25000 Kvar=23.41874 Model=1
New Load.MATTHEWS-167 Bus1=MATTHEWS-167 kV=12.47000 kW=10.68750 Kvar=3.51281 Model=1
New Load.MATTHEWS-169 Bus1=MATTHEWS-169 kV=12.47000 kW=10.68750 Kvar=3.51281 Model=1
New Load.MATTHEWS-170 Bus1=MATTHEWS-170 kV=0.20800 kW=71.25000 Kvar=23.41874 Model=1
New Load.SOUTH_EBU2 Bus1=SOUTH_EBU2 kV=0.48000 kW=285.00000 Kvar=93.67497 Model=1
New Load.LAB_EBU32 Bus1=LAB_EBU32 kV=0.48000 kW=356.25000 Kvar=117.09371 Model=1
New Load.CANYONVIEW_AQ_CENTER Bus1=CANYONVIEW_AQ_CENTER kV=0.48000 kW=71.25000 Kvar=23.41874 Model=1
New Load.CAL-IT-1 Bus1=CAL-IT-1 kV=0.48000 kW=213.75000 Kvar=70.25623 Model=1
New Load.CAL-IT-2 Bus1=CAL-IT-2 kV=0.48000 kW=213.75000 Kvar=70.25623 Model=1
New Load.CAL-IT-3 Bus1=CAL-IT-3 kV=0.48000 kW=213.75000 Kvar=70.25623 Model=1
New Load.BIO-ENG-1 Bus1=BIO-ENG-1 kV=0.48000 kW=213.75000 Kvar=70.25623 Model=1
New Load.BIO-ENG-2 Bus1=BIO-ENG-2 kV=0.48000 kW=213.75000 Kvar=70.25623 Model=1
New Load.COMP-SC-1 Bus1=COMP-SC-1 kV=0.48000 kW=213.75000 Kvar=70.25623 Model=1
New Load.COMP-SC-2 Bus1=COMP-SC-2 kV=0.48000 kW=213.75000 Kvar=70.25623 Model=1
New Load.NORTH_EBU2 Bus1=NORTH_EBU2 kV=0.48000 kW=285.00000 Kvar=93.67497 Model=1
New Load.CANYONVIEW_APT Bus1=CANYONVIEW_APT kV=0.48000 kW=213.75000 Kvar=70.25623 Model=1
New Load.WARREN_APT Bus1=WARREN_APT kV=12.47000 kW=92.62500 Kvar=30.44437 Model=1
New Load.L-XFMR-346 Bus1=L-XFMR-346 kV=0.48000 kW=213.75000 Kvar=70.25623 Model=1
New Load.L-XFMR-347 Bus1=L-XFMR-347 kV=0.48000 kW=213.75000 Kvar=70.25623 Model=1
New Load.US1_EAST Bus1=US1_EAST kV=0.48000 kW=213.75000 Kvar=70.25623 Model=1
New Load.US1_WEST Bus1=US1_WEST kV=0.48000 kW=213.75000 Kvar=70.25623 Model=1
New Load.SOCIAL_SCIENCE Bus1=SOCIAL_SCIENCE kV=0.48000 kW=106.87500 Kvar=35.12811 Model=1
New Load.VISUAL_ARTS_FACILITY Bus1=VISUAL_ARTS_FACILITY kV=0.48000 kW=213.75000 Kvar=70.25623 Model=1
New Load.HIGHBAYPHYSICS Bus1=HIGHBAYPHYSICS kV=0.48000 kW=71.25000 Kvar=23.41874 Model=1
New Load.POWELL-LAB Bus1=POWELL-LAB kV=0.48000 kW=285.00000 Kvar=93.67497 Model=1
New Load.SUB-D Bus1=SUB-D kV=0.48000 kW=285.00000 Kvar=93.67497 Model=1
New Load.IR-BLDG Bus1=IR-BLDG kV=0.48000 kW=213.75000 Kvar=70.25623 Model=1
New Load.ENGINEERING_BLDG1 Bus1=ENGINEERING_BLDG1 kV=0.48000 kW=213.75000 Kvar=70.25623 Model=1
New Load.ENGINEERING_BLDG2 Bus1=ENGINEERING_BLDG2 kV=0.48000 kW=213.75000 Kvar=70.25623 Model=1
New Load.LOAD-XFMR139 Bus1=LOAD-XFMR139 kV=0.48000 kW=142.50000 Kvar=46.83748 Model=1
New Load.LOAD-XFMR140 Bus1=LOAD-XFMR140 kV=0.48000 kW=106.87500 Kvar=35.12811 Model=1
New Load.LOAD-CMRR Bus1=LOAD-CMRR kV=0.48000 kW=106.87500 Kvar=35.12811 Model=1
New Load.PRICE-CTR-EXPAN-1 Bus1=PRICE-CTR-EXPAN-1 kV=0.48000 kW=285.00000 Kvar=93.67497 Model=1
New Load.PRICE-CTR-EXPAN-2 Bus1=PRICE-CTR-EXPAN-2 kV=0.48000 kW=213.75000 Kvar=70.25623 Model=1
New Load.LOAD-XFMR352 Bus1=LOAD-XFMR352 kV=0.20800 kW=106.87500 Kvar=35.12811 Model=1
New Load.CENT-LIB-183 Bus1=CENT-LIB-183 kV=0.48000 kW=106.87500 Kvar=35.12811 Model=1
New Load.CENT-LIB-182 Bus1=CENT-LIB-182 kV=0.48000 kW=106.87500 Kvar=35.12811 Model=1
New Load.CENT-LIB-184 Bus1=CENT-LIB-184 kV=0.48000 kW=213.75000 Kvar=70.25623 Model=1
New Load.HEALTH_CENTER Bus1=HEALTH_CENTER kV=12.47000 kW=85.50000 Kvar=28.10249 Model=1
New Load.MATTHEWS_SUB Bus1=MATTHEWS_SUB kV=0.48000 kW=106.87500 Kvar=35.12811 Model=1
New Load.CAREER_SERV Bus1=CAREER_SERV kV=12.47000 kW=32.06250 Kvar=10.53843 Model=1
New Load.CLASSROOM Bus1=CLASSROOM kV=0.48000 kW=142.50000 Kvar=46.83748 Model=1
New Load.MAAC_BLDGS Bus1=MAAC_BLDGS kV=0.48000 kW=142.50000 Kvar=46.83748 Model=1
// Unsupported load type; converted to constant kVA load.
New Load.MULTIPUPR_BLDG Bus1=MULTIPUPR_BLDG kV=0.48000 kW=106.87500 Kvar=35.12811 Model=1
New Load.GILMAN_PARKING Bus1=GILMAN_PARKING kV=0.48000 kW=106.87500 Kvar=35.12811 Model=1
New Load.CREDIT_UNION Bus1=CREDIT_UNION kV=12.47000 kW=21.37500 Kvar=7.02562 Model=1
New Load.ERC Bus1=ERC kV=2.40000 kW=142.50000 Kvar=46.83748 Model=1
New Load.LOAD-IOA1 Bus1=LOAD-IOA1 kV=12.47000 kW=21.37500 Kvar=7.02562 Model=1
New Load.3rd_COLLEGE_RESIDENCE Bus1=3rd_COLLEGE_RESIDENCE kV=0.20800 kW=71.25000 Kvar=23.41874 Model=1
New Load.LOAD-IOA2 Bus1=LOAD-IOA2 kV=12.47000 kW=21.37500 Kvar=7.02562 Model=1
New Load.SCHOOL_INTERNAL_RELATION Bus1=SCHOOL_INTERNAL_RELATION kV=12.47000 kW=85.50000 Kvar=28.10249 Model=1
New Load.3rd_COLLEGE_APT_1 Bus1=3rd_COLLEGE_APT_1 kV=12.47000 kW=42.75000 Kvar=14.05125 Model=1
New Load.3rd_COLLEGE_APT_2 Bus1=3rd_COLLEGE_APT_2 kV=12.47000 kW=10.68750 Kvar=3.51281 Model=1
New Load.OCEANVIEW_TERRACE Bus1=OCEANVIEW_TERRACE kV=12.47000 kW=10.68750 Kvar=3.51281 Model=1
New Load.ERC-2 Bus1=ERC-2 kV=0.48000 kW=142.50000 Kvar=46.83748 Model=1
New Load.PANGEA_PARK Bus1=PANGEA_PARK kV=0.48000 kW=71.25000 Kvar=23.41874 Model=1
New Load.ATLETIC_FIELD Bus1=ATLETIC_FIELD kV=0.48000 kW=71.25000 Kvar=23.41874 Model=1
New Load.SCHOOLofMANAGEMENT Bus1=SCHOOLofMANAGEMENT kV=0.48000 kW=213.75000 Kvar=70.25623 Model=1
New Load.ALEX_SPANOS_BLDG Bus1=ALEX_SPANOS_BLDG kV=12.47000 kW=85.50000 Kvar=28.10249 Model=1
New Load.BLDG3C-500kVA Bus1=BLDG3C-500kVA kV=0.48000 kW=71.25000 Kvar=23.41874 Model=1
New Load.BLDG3C-300kVA Bus1=BLDG3C-300kVA kV=0.20800 kW=42.75000 Kvar=14.05125 Model=1
New Load.BLDG3B-480V Bus1=BLDG3B-480V kV=0.48000 kW=106.87500 Kvar=35.12811 Model=1
New Load.BLDG3B-208V Bus1=BLDG3B-208V kV=0.20800 kW=106.87500 Kvar=35.12811 Model=1
New Load.BLDG3F-H Bus1=BLDG3F-H kV=12.47000 kW=28.50000 Kvar=9.36750 Model=1
New Load.BLDG3F-L Bus1=BLDG3F-L kV=12.47000 kW=42.75000 Kvar=14.05125 Model=1
New Load.BUILDING_3E Bus1=BUILDING_3E kV=0.48000 kW=71.25000 Kvar=23.41874 Model=1
New Load.MARSHALLSUB Bus1=MARSHALLSUB kV=0.48000 kW=71.25000 Kvar=23.41874 Model=1
New Load.MARSHALLSUB-2 Bus1=MARSHALLSUB-2 kV=12.47000 kW=42.75000 Kvar=14.05125 Model=1
New Load.MARSHALLSUB-3 Bus1=MARSHALLSUB-3 kV=12.47000 kW=42.75000 Kvar=14.05125 Model=1
New Load.MARSHALLSUB-4 Bus1=MARSHALLSUB-4 kV=12.47000 kW=42.75000 Kvar=14.05125 Model=1
New Load.MANDEVILLE_CTR Bus1=MANDEVILLE_CTR kV=0.48000 kW=213.75000 Kvar=70.25623 Model=1
New Load.FACULTY_CLUB Bus1=FACULTY_CLUB kV=12.47000 kW=21.37500 Kvar=7.02562 Model=1
New Load.STUDENT_CTR1 Bus1=STUDENT_CTR1 kV=0.20800 kW=71.25000 Kvar=23.41874 Model=1
New Load.STUDENT_CTR2 Bus1=STUDENT_CTR2 kV=12.47000 kW=42.75000 Kvar=14.05125 Model=1
New Load.PHYS-EDU-BLDGS Bus1=PHYS-EDU-BLDGS kV=0.48000 kW=71.25000 Kvar=23.41874 Model=1
New Load.BLDG2B-208V Bus1=BLDG2B-208V kV=0.20800 kW=106.87500 Kvar=35.12811 Model=1
New Load.BLDG2B-480 Bus1=BLDG2B-480 kV=0.20800 kW=71.25000 Kvar=23.41874 Model=1
New Load.BLDG-2D Bus1=BLDG-2D kV=0.20800 kW=142.50000 Kvar=46.83748 Model=1
New Load.BLDG-2A-SUB1 Bus1=BLDG-2A-SUB1 kV=0.48000 kW=356.25000 Kvar=117.09371 Model=1
New Load.BLDG-2A-SUB2 Bus1=BLDG-2A-SUB2 kV=0.48000 kW=142.50000 Kvar=46.83748 Model=1
New Load.BLDG-2A-SUB3 Bus1=BLDG-2A-SUB3 kV=0.48000 kW=142.50000 Kvar=46.83748 Model=1
New Load.BLDG-2C-1 Bus1=BLDG-2C-1 kV=0.20800 kW=142.50000 Kvar=46.83748 Model=1
New Load.DINING_COMMONS Bus1=DINING_COMMONS kV=0.20800 kW=106.87500 Kvar=35.12811 Model=1
New Load.TENEYA Bus1=TENEYA kV=0.20800 kW=71.25000 Kvar=23.41874 Model=1
New Load.TIOGA Bus1=TIOGA kV=0.20800 kW=71.25000 Kvar=23.41874 Model=1
New Load.CELL-SITE Bus1=CELL-SITE kV=12.47000 kW=32.06250 Kvar=10.53843 Model=1
New Load.MUIR_APTS Bus1=MUIR_APTS kV=0.20800 kW=106.87500 Kvar=35.12811 Model=1
New Load.UREY_HALL-1 Bus1=UREY_HALL-1 kV=0.48000 kW=213.75000 Kvar=70.25623 Model=1
New Load.UREY_HALL-2 Bus1=UREY_HALL-2 kV=0.20800 kW=142.50000 Kvar=46.83748 Model=1
New Load.UREY_HALL-3 Bus1=UREY_HALL-3 kV=0.48000 kW=142.50000 Kvar=46.83748 Model=1
New Load.PACIFIC_HALL_1 Bus1=PACIFIC_HALL_1 kV=0.20800 kW=142.50000 Kvar=46.83748 Model=1
New Load.PACIFIC_HALL_2 Bus1=PACIFIC_HALL_2 kV=0.20800 kW=142.50000 Kvar=46.83748 Model=1
New Load.PACIFIC_HALL_3 Bus1=PACIFIC_HALL_3 kV=0.48000 kW=356.25000 Kvar=117.09371 Model=1
New Load.Load-XFMR154 Bus1=Load-XFMR154 kV=0.20800 kW=71.25000 Kvar=23.41874 Model=1
New Load.LC-B Bus1=LC-B kV=0.48000 kW=71.25000 Kvar=23.41874 Model=1
New Load.LC-C Bus1=LC-C kV=0.20800 kW=142.50000 Kvar=46.83748 Model=1
New Load.GALBRAITH_HALL Bus1=GALBRAITH_HALL kV=0.48000 kW=213.75000 Kvar=70.25623 Model=1
New Load.AGRO_BLAKE_HALLS Bus1=AGRO_BLAKE_HALLS kV=0.48000 kW=142.50000 Kvar=46.83748 Model=1
New Load.REVELLE_CAFE Bus1=REVELLE_CAFE kV=0.20800 kW=106.87500 Kvar=35.12811 Model=1
New Load.YORK_HALL-3 Bus1=YORK_HALL-3 kV=0.20800 kW=106.87500 Kvar=35.12811 Model=1
New Load.YORK_HALL-2 Bus1=YORK_HALL-2 kV=0.48000 kW=71.25000 Kvar=23.41874 Model=1
New Load.YORK_HALL-1 Bus1=YORK_HALL-1 kV=0.20800 kW=142.50000 Kvar=46.83748 Model=1
New Load.MAYER_HALL_480 Bus1=MAYER_HALL_480 kV=0.48000 kW=71.25000 Kvar=23.41874 Model=1
New Load.MAYER_HALL_208 Bus1=MAYER_HALL_208 kV=0.20800 kW=142.50000 Kvar=46.83748 Model=1
New Load.MAYER_HALL_EXP_1 Bus1=MAYER_HALL_EXP_1 kV=0.48000 kW=213.75000 Kvar=70.25623 Model=1
New Load.MAYER_HALL_EXP_2 Bus1=MAYER_HALL_EXP_2 kV=0.48000 kW=213.75000 Kvar=70.25623 Model=1
New Load.PHARMACY_BLDG_1 Bus1=PHARMACY_BLDG_1 kV=0.48000 kW=142.50000 Kvar=46.83748 Model=1
New Load.PHARMACY_BLDG_2 Bus1=PHARMACY_BLDG_2 kV=0.48000 kW=142.50000 Kvar=46.83748 Model=1
New Load.PHARMACY_BLDG_EM_SUB Bus1=PHARMACY_BLDG_EM_SUB kV=0.48000 kW=142.50000 Kvar=46.83748 Model=1
New Load.CMG Bus1=CMG kV=0.48000 kW=356.25000 Kvar=117.09371 Model=1
New Load.CMM_EAST-1 Bus1=CMM_EAST-1 kV=0.48000 kW=285.00000 Kvar=93.67497 Model=1
New Load.CMM_EAST-2 Bus1=CMM_EAST-2 kV=0.48000 kW=213.75000 Kvar=70.25623 Model=1
New Load.MED_RESEARCH_FACIL_A Bus1=MED_RESEARCH_FACIL_A kV=0.48000 kW=213.75000 Kvar=70.25623 Model=1
New Load.MED_RESEARCH_FACIL_B Bus1=MED_RESEARCH_FACIL_B kV=0.48000 kW=213.75000 Kvar=70.25623 Model=1
New Load.MED_RESEARCH_FACIL_C Bus1=MED_RESEARCH_FACIL_C kV=0.48000 kW=213.75000 Kvar=70.25623 Model=1
New Load.SS-4 Bus1=SS-4 kV=0.20800 kW=142.50000 Kvar=46.83748 Model=1
New Load.SS-5 Bus1=SS-5 kV=0.48000 kW=285.00000 Kvar=93.67497 Model=1
New Load.SS-7 Bus1=SS-7 kV=0.20800 kW=142.50000 Kvar=46.83748 Model=1
New Load.SS-6 Bus1=SS-6 kV=0.20800 kW=142.50000 Kvar=46.83748 Model=1
New Load.SS-3 Bus1=SS-3 kV=0.48000 kW=71.25000 Kvar=23.41874 Model=1
New Load.SS-2 Bus1=SS-2 kV=0.48000 kW=142.50000 Kvar=46.83748 Model=1
New Load.SS-1 Bus1=SS-1 kV=0.20800 kW=106.87500 Kvar=35.12811 Model=1
New Load.SS-8 Bus1=SS-8 kV=0.48000 kW=106.87500 Kvar=35.12811 Model=1
New Load.BIO-MED-LIB Bus1=BIO-MED-LIB kV=0.48000 kW=213.75000 Kvar=70.25623 Model=1
New Load.CLINICAL_SCIENCE_B Bus1=CLINICAL_SCIENCE_B kV=0.48000 kW=213.75000 Kvar=70.25623 Model=1
New Load.CLINICAL_SCIENCE_A Bus1=CLINICAL_SCIENCE_A kV=0.48000 kW=142.50000 Kvar=46.83748 Model=1
New Load.IMG Bus1=IMG kV=0.48000 kW=10.68750 Kvar=3.51281 Model=1
New Load.MEDICAL_TEACHING_F Bus1=MEDICAL_TEACHING_F kV=0.48000 kW=213.75000 Kvar=70.25623 Model=1
New Load.BLACKSTART_SUB Bus1=BLACKSTART_SUB kV=0.48000 kW=285.00000 Kvar=93.67497 Model=1
New Load.CMG1 Bus1=CMG1 kV=0.48000 kW=142.50000 Kvar=46.83748 Model=1
New Load.WC5 Bus1=WC5 kV=4.16000 kW=140.67900 Kvar=28.56609 Model=1
New Load.LOAD-US3N Bus1=LOAD-US3N kV=0.48000 kW=285.00000 Kvar=93.67497 Model=1
New Load.LOAD-US7N Bus1=LOAD-US7N kV=0.48000 kW=285.00000 Kvar=93.67497 Model=1
New Load.CT34-1 Bus1=CT34-1 kV=0.48000 kW=27.97500 Kvar=9.19494 Model=1
New Load.CT34-2 Bus1=CT34-2 kV=0.48000 kW=13.98750 Kvar=4.59747 Model=1
New Load.CT-5_6 Bus1=CT-5_6 kV=0.48000 kW=285.00000 Kvar=93.67497 Model=1
New Load.CT-7 Bus1=CT-7 kV=0.48000 kW=213.75000 Kvar=70.25623 Model=1
New Load.TES_PRI Bus1=TES_PRI kV=0.48000 kW=142.50000 Kvar=46.83748 Model=1
New Load.FORUM-THEATER Bus1=FORUM-THEATER kV=0.20800 kW=106.87500 Kvar=35.12811 Model=1
New Load.DANCE_STUDIO Bus1=DANCE_STUDIO kV=12.47000 kW=42.75000 Kvar=14.05125 Model=1
New Load.SS-BA Bus1=SS-BA kV=0.48000 kW=142.50000 Kvar=46.83748 Model=1
New Load.SS-BB Bus1=SS-BB kV=0.48000 kW=142.50000 Kvar=46.83748 Model=1
New Load.SS-BC Bus1=SS-BC kV=0.48000 kW=213.75000 Kvar=70.25623 Model=1
New Load.LOAD-SS-18 Bus1=LOAD-SS-18 kV=12.47000 kW=92.33433 Kvar=30.34883 Model=1
New Load.ENDURANCE_HALL_1 Bus1=ENDURANCE_HALL_1 kV=0.20800 kW=213.75000 Kvar=70.25623 Model=1
New Load.ENDURANCE_HALL_2 Bus1=ENDURANCE_HALL_2 kV=0.48000 kW=71.25000 Kvar=23.41874 Model=1
New Load.SVERDRUP_HALL_1 Bus1=SVERDRUP_HALL_1 kV=0.20800 kW=106.87500 Kvar=35.12811 Model=1
New Load.SVERDRUP_HALL_2 Bus1=SVERDRUP_HALL_2 kV=0.20800 kW=106.87500 Kvar=35.12811 Model=1
New Load.MARINE_SCIENCE Bus1=MARINE_SCIENCE kV=12.47000 kW=42.75000 Kvar=14.05125 Model=1
New Load.SCRIPPS_BLDG Bus1=SCRIPPS_BLDG kV=12.47000 kW=42.75000 Kvar=14.05125 Model=1
New Load.OLD_RITTER_HALL Bus1=OLD_RITTER_HALL kV=0.20800 kW=106.87500 Kvar=35.12811 Model=1
New Load.PIER_SUBSTATION Bus1=PIER_SUBSTATION kV=12.47000 kW=16.03125 Kvar=5.26922 Model=1
New Load.SCHOLANDER_HALL Bus1=SCHOLANDER_HALL kV=12.47000 kW=42.75000 Kvar=14.05125 Model=1
New Load.PANEL_SIO Bus1=PANEL_SIO kV=12.47000 kW=32.06250 Kvar=10.53843 Model=1
New Load.SEAWEED_CANYON Bus1=SEAWEED_CANYON kV=0.20800 kW=71.25000 Kvar=23.41874 Model=1
New Load.BIRCH_AQUARIUM Bus1=BIRCH_AQUARIUM kV=0.48000 kW=106.87500 Kvar=35.12811 Model=1
New Load.DEEP_SEA_DRILING Bus1=DEEP_SEA_DRILING kV=12.47000 kW=42.75000 Kvar=14.05125 Model=1
New Load.OARF Bus1=OARF kV=0.48000 kW=213.75000 Kvar=70.25623 Model=1
New Load.NIERBURG_HALL Bus1=NIERBURG_HALL kV=0.48000 kW=106.87500 Kvar=35.12811 Model=1
New Load.IGPP_II Bus1=IGPP_II kV=0.20800 kW=71.25000 Kvar=23.41874 Model=1
New Load.NORPAX Bus1=NORPAX kV=0.48000 kW=71.25000 Kvar=23.41874 Model=1
New Load.HUBBS_HALL Bus1=HUBBS_HALL kV=0.48000 kW=285.00000 Kvar=93.67497 Model=1
New Load.SIO_LIBRARY Bus1=SIO_LIBRARY kV=0.48000 kW=106.87500 Kvar=35.12811 Model=1
New Load.IGPP Bus1=IGPP kV=0.48000 kW=106.87500 Kvar=35.12811 Model=1
New Load.SUB-2A Bus1=SUB-2A kV=0.48000 kW=213.75000 Kvar=70.25623 Model=1
New Load.CH-1 Bus1=CH-1 kV=4.16000 kW=88.96552 Kvar=55.13588 Model=1
New Load.CH-2 Bus1=CH-2 kV=4.16000 kW=88.96552 Kvar=55.13588 Model=1
New Load.HOPKINS-PARL-LOAD Bus1=HOPKINS-PARL-LOAD kV=0.48000 kW=42.75000 Kvar=14.05125 Model=1
New Load.WC7 Bus1=WC7 kV=4.16000 kW=223.44000 Kvar=45.37143 Model=1
New Load.WC6 Bus1=WC6 kV=4.16000 kW=140.67900 Kvar=28.56609 Model=1
New Load.WC3 Bus1=WC3 kV=4.16000 kW=140.67900 Kvar=28.56609 Model=1
New Load.WC9 Bus1=WC9 kV=4.16000 kW=223.44000 Kvar=45.37143 Model=1
New Load.HEALTH-SCI-APT-1 Bus1=HEALTH-SCI-APT-1 kV=0.48000 kW=285.00000 Kvar=93.67497 Model=1
New Load.HEALTH-SCI-APT-2 Bus1=HEALTH-SCI-APT-2 kV=0.48000 kW=285.00000 Kvar=93.67497 Model=1
New Load.MATTHEWS-287 Bus1=MATTHEWS-287 kV=12.47000 kW=21.37500 Kvar=7.02562 Model=1
New Load.PE_FACILITIES_ Bus1=PE_FACILITIES_ kV=12.47000 kW=42.75000 Kvar=14.05125 Model=1
New Load.M_CLASSROOMS Bus1=M_CLASSROOMS kV=12.47000 kW=21.37500 Kvar=7.02562 Model=1
New Load.CPB Bus1=CPB kV=0.48000 kW=356.25000 Kvar=117.09371 Model=1
New Load.L-XFMR208 Bus1=L-XFMR208 kV=0.48000 kW=71.25000 Kvar=23.41874 Model=1
New Load.L-XFMR337 Bus1=L-XFMR337 kV=12.47000 kW=10.68750 Kvar=3.51281 Model=1
New Load.RAD Bus1=RAD kV=0.48000 kW=71.25000 Kvar=23.41874 Model=1
New Load.CVC-2 Bus1=CVC-2 kV=0.48000 kW=213.75000 Kvar=70.25623 Model=1
New Load.CVC-1 Bus1=CVC-1 kV=0.48000 kW=213.75000 Kvar=70.25623 Model=1
New Load.RAD-ONCOLOGY Bus1=RAD-ONCOLOGY kV=0.20800 kW=95.62500 Kvar=59.26305 Model=1
New Load.CDP-2 Bus1=CDP-2 kV=0.48000 kW=285.00000 Kvar=93.67497 Model=1
New Load.MDS Bus1=MDS kV=0.48000 kW=213.75000 Kvar=70.25623 Model=1
New Load.CDP Bus1=CDP kV=0.48000 kW=213.75000 Kvar=70.25623 Model=1
New Load.LXFMR-367 Bus1=LXFMR-367 kV=0.48000 kW=285.00000 Kvar=93.67497 Model=1
New Load.LXFMR-368 Bus1=LXFMR-368 kV=0.48000 kW=285.00000 Kvar=93.67497 Model=1
New Load.LXFMR-369 Bus1=LXFMR-369 kV=0.48000 kW=285.00000 Kvar=93.67497 Model=1
New Load.LXFMR-370 Bus1=LXFMR-370 kV=0.48000 kW=285.00000 Kvar=93.67497 Model=1
New Load.STUDENT_SERVICE Bus1=STUDENT_SERVICE kV=0.48000 kW=213.75000 Kvar=70.25623 Model=1
New Load.MUSIC_BUILD. Bus1=MUSIC_BUILD. kV=0.48000 kW=142.50000 Kvar=46.83748 Model=1
New Load.BLDG-2C-2 Bus1=BLDG-2C-2 kV=0.48000 kW=142.50000 Kvar=46.83748 Model=1
New Load.L-XFMR302 Bus1=L-XFMR302 kV=0.48000 kW=142.50000 Kvar=46.83748 Model=1
New Load.L-XFMR301 Bus1=L-XFMR301 kV=0.48000 kW=142.50000 Kvar=46.83748 Model=1
New Load.L-XFMR300 Bus1=L-XFMR300 kV=0.48000 kW=142.50000 Kvar=46.83748 Model=1
New Load.NC_HOUSING1 Bus1=NC_HOUSING1 kV=0.48000 kW=142.50000 Kvar=46.83748 Model=1
New Load.NC_HOUSING2 Bus1=NC_HOUSING2 kV=0.48000 kW=106.87500 Kvar=35.12811 Model=1
New Load.NC_HOUSING3 Bus1=NC_HOUSING3 kV=0.48000 kW=106.87500 Kvar=35.12811 Model=1
New Load.MS1 Bus1=MS1 kV=0.48000 kW=213.75000 Kvar=70.25623 Model=1
New Load.MS4 Bus1=MS4 kV=0.48000 kW=213.75000 Kvar=70.25623 Model=1
New Load.MS5 Bus1=MS5 kV=0.48000 kW=142.50000 Kvar=46.83748 Model=1
New Load.UNEX Bus1=UNEX kV=0.20800 kW=106.87500 Kvar=35.12811 Model=1
New Load.BALLOON_BUILD. Bus1=BALLOON_BUILD. kV=12.47000 kW=42.75000 Kvar=14.05125 Model=1
New Load.MUIR_APT Bus1=MUIR_APT kV=0.48000 kW=106.87500 Kvar=35.12811 Model=1
New Load.REVELLE_H Bus1=REVELLE_H kV=0.48000 kW=106.87500 Kvar=35.12811 Model=1
New Load.HD_SUB Bus1=HD_SUB kV=12.47000 kW=14.25000 Kvar=4.68375 Model=1
New Load.BLACK_BOX_RESTAUR. Bus1=BLACK_BOX_RESTAUR. kV=12.47000 kW=42.75000 Kvar=14.05125 Model=1
New Load.MANDELL_WEISS Bus1=MANDELL_WEISS kV=0.20800 kW=106.87500 Kvar=35.12811 Model=1
New Load.BLACK_BOX Bus1=BLACK_BOX kV=0.48000 kW=213.75000 Kvar=70.25623 Model=1
// Declare Lines
New Line.FD-EASTCAMPUS-1 Bus1=16 Bus2=18 Length=0.10000 R1=0.00405 X1=0.01097 R0=0.02317 X0=0.01703 C1=0.000000 C0=0.000000 Normamps=1678.95000  Units=none
New Line.FD-EASTCAMPUS-2 Bus1=17 Bus2=19 Length=0.10000 R1=0.00405 X1=0.01097 R0=0.02317 X0=0.01703 C1=0.000000 C0=0.000000 Normamps=1678.95000  Units=none
New Line.FD-EASTCAMPUS-3 Bus1=21 Bus2=20 Length=0.10000 R1=0.00405 X1=0.01097 R0=0.02317 X0=0.01703 C1=0.000000 C0=0.000000 Normamps=1678.95000  Units=none
New Line.FD-EC38-E50 Bus1=39 Bus2=85 Length=0.05000 R1=0.02327 X1=0.04560 R0=0.08060 X0=0.04870 C1=0.000000 C0=0.000000 Normamps=391.30000  Units=none
New Line.FD-EC37-E50 Bus1=38 Bus2=109 Length=0.05000 R1=0.02327 X1=0.04560 R0=0.08060 X0=0.04870 C1=0.000000 C0=0.000000 Normamps=391.30000  Units=none
New Line.FD-E50-SWSTA71-1 Bus1=85 Bus2=88 Length=0.12000 R1=0.02327 X1=0.04560 R0=0.08060 X0=0.04870 C1=0.000000 C0=0.000000 Normamps=391.30000  Units=none
New Line.FD-EC10-E50 Bus1=46 Bus2=86 Length=0.05000 R1=0.02327 X1=0.04560 R0=0.08060 X0=0.04870 C1=0.000000 C0=0.000000 Normamps=391.30000  Units=none
New Line.FD-E50-SWSTA71-2 Bus1=86 Bus2=89 Length=0.12000 R1=0.02327 X1=0.04560 R0=0.08060 X0=0.04870 C1=0.000000 C0=0.000000 Normamps=391.30000  Units=none
New Line.95 Bus1=EAST_CAMPUS_1 Bus2=97 Length=0.03000 R1=0.00550 X1=0.00410 R0=0.06336 X0=0.01110 C1=0.000000 C0=0.000000 Normamps=1760.00000  Units=none
New Line.FD-XFMR283 Bus1=104 Bus2=99 Length=0.02000 R1=0.02327 X1=0.04560 R0=0.08060 X0=0.04870 C1=0.000000 C0=0.000000 Normamps=334.40000  Units=none
New Line.FD-E50-E53-3 Bus1=85 Bus2=112 Length=1.08000 R1=0.02327 X1=0.04560 R0=0.08060 X0=0.04870 C1=0.000000 C0=0.000000 Normamps=391.30000  Units=none
New Line.FD-E50-E53-4 Bus1=86 Bus2=113 Length=1.08000 R1=0.02327 X1=0.04560 R0=0.08060 X0=0.04870 C1=0.000000 C0=0.000000 Normamps=391.30000  Units=none
New Line.FD-E50-E53-5 Bus1=109 Bus2=111 Length=1.08000 R1=0.02327 X1=0.04560 R0=0.08060 X0=0.04870 C1=0.000000 C0=0.000000 Normamps=391.30000  Units=none
New Line.FD-EC13-E50 Bus1=49 Bus2=115 Length=0.05000 R1=0.02327 X1=0.04560 R0=0.08060 X0=0.04870 C1=0.000000 C0=0.000000 Normamps=391.30000  Units=none
New Line.FD-E50-E53-1 Bus1=115 Bus2=117 Length=1.08000 R1=0.02327 X1=0.04560 R0=0.08060 X0=0.04870 C1=0.000000 C0=0.000000 Normamps=391.30000  Units=none
New Line.FD-EC6-E50 Bus1=42 Bus2=119 Length=0.05000 R1=0.02327 X1=0.04560 R0=0.08060 X0=0.04870 C1=0.000000 C0=0.000000 Normamps=391.30000  Units=none
New Line.FD-E50-E53-6 Bus1=119 Bus2=121 Length=1.08000 R1=0.02327 X1=0.04560 R0=0.08060 X0=0.04870 C1=0.000000 C0=0.000000 Normamps=391.30000  Units=none
New Line.FD-EC9-E50 Bus1=51 Bus2=123 Length=0.05000 R1=0.02327 X1=0.04560 R0=0.08060 X0=0.04870 C1=0.000000 C0=0.000000 Normamps=391.30000  Units=none
New Line.FD-E50-E53-2 Bus1=123 Bus2=125 Length=1.08000 R1=0.02327 X1=0.04560 R0=0.08060 X0=0.04870 C1=0.000000 C0=0.000000 Normamps=391.30000  Units=none
New Line.FD-E53-SWSTA51-1 Bus1=91 Bus2=112 Length=0.09000 R1=0.02327 X1=0.04560 R0=0.08060 X0=0.04870 C1=0.000000 C0=0.000000 Normamps=391.30000  Units=none
New Line.FD-E53-SWSTA51-2 Bus1=90 Bus2=113 Length=0.09000 R1=0.02327 X1=0.04560 R0=0.08060 X0=0.04870 C1=0.000000 C0=0.000000 Normamps=391.30000  Units=none
New Line.FD-E53-E531-2 Bus1=111 Bus2=144 Length=0.52800 R1=0.02327 X1=0.04560 R0=0.08060 X0=0.04870 C1=0.000000 C0=0.000000 Normamps=391.30000  Units=none
New Line.FD-E53-E531-1 Bus1=117 Bus2=143 Length=0.52800 R1=0.02327 X1=0.04560 R0=0.08060 X0=0.04870 C1=0.000000 C0=0.000000 Normamps=391.30000  Units=none
New Line.FD-E53-E54-1 Bus1=125 Bus2=149 Length=0.70000 R1=0.02327 X1=0.04560 R0=0.08060 X0=0.04870 C1=0.000000 C0=0.000000 Normamps=391.30000  Units=none
New Line.FD-E53-E54-2 Bus1=112 Bus2=150 Length=0.70000 R1=0.02327 X1=0.04560 R0=0.08060 X0=0.04870 C1=0.000000 C0=0.000000 Normamps=391.30000  Units=none
New Line.FD-E53-E54-3 Bus1=113 Bus2=151 Length=0.70000 R1=0.02327 X1=0.04560 R0=0.08060 X0=0.04870 C1=0.000000 C0=0.000000 Normamps=391.30000  Units=none
New Line.FD-E53-E54-4 Bus1=121 Bus2=152 Length=0.70000 R1=0.02327 X1=0.04560 R0=0.08060 X0=0.04870 C1=0.000000 C0=0.000000 Normamps=391.30000  Units=none
New Line.FD-THORTON-ST-LIGH Bus1=THORTON-ST-LIGHT Bus2=150 Length=0.15000 R1=0.02327 X1=0.04560 R0=0.08060 X0=0.04870 C1=0.000000 C0=0.000000 Normamps=391.30000  Units=none
New Line.FD-E54-E55-1 Bus1=149 Bus2=156 Length=0.41000 R1=0.02327 X1=0.04560 R0=0.08060 X0=0.04870 C1=0.000000 C0=0.000000 Normamps=391.30000  Units=none
New Line.FD-E54-E55-2 Bus1=150 Bus2=157 Length=0.41000 R1=0.02327 X1=0.04560 R0=0.08060 X0=0.04870 C1=0.000000 C0=0.000000 Normamps=391.30000  Units=none
New Line.FD-E54-E55-3 Bus1=151 Bus2=158 Length=0.41000 R1=0.02327 X1=0.04560 R0=0.08060 X0=0.04870 C1=0.000000 C0=0.000000 Normamps=391.30000  Units=none
New Line.FD-E54-E55-4 Bus1=152 Bus2=159 Length=0.41000 R1=0.02327 X1=0.04560 R0=0.08060 X0=0.04870 C1=0.000000 C0=0.000000 Normamps=391.30000  Units=none
New Line.FD-E55-E58-2 Bus1=159 Bus2=164 Length=1.23000 R1=0.02327 X1=0.04560 R0=0.08060 X0=0.04870 C1=0.000000 C0=0.000000 Normamps=391.30000  Units=none
New Line.FD-E55-E58-3 Bus1=156 Bus2=165 Length=1.23000 R1=0.02327 X1=0.04560 R0=0.08060 X0=0.04870 C1=0.000000 C0=0.000000 Normamps=391.30000  Units=none
New Line.FD-T049 Bus1=3258 Bus2=172 Length=0.47000 R1=0.02327 X1=0.04560 R0=0.08060 X0=0.04870 C1=0.000000 C0=0.000000 Normamps=391.30000  Units=none
New Line.FD-T51 Bus1=3262 Bus2=173 Length=0.45000 R1=0.02327 X1=0.04560 R0=0.08060 X0=0.04870 C1=0.000000 C0=0.000000 Normamps=391.30000  Units=none
New Line.FD-SWSTA96-1 Bus1=165 Bus2=3283 Length=0.03000 R1=0.02327 X1=0.04560 R0=0.08060 X0=0.04870 C1=0.000000 C0=0.000000 Normamps=391.30000  Units=none
New Line.FD-SWSTA96-2 Bus1=164 Bus2=3282 Length=0.03000 R1=0.02327 X1=0.04560 R0=0.08060 X0=0.04870 C1=0.000000 C0=0.000000 Normamps=391.30000  Units=none
New Line.FD-T53 Bus1=3260 Bus2=180 Length=0.43000 R1=0.02327 X1=0.04560 R0=0.08060 X0=0.04870 C1=0.000000 C0=0.000000 Normamps=391.30000  Units=none
New Line.FD-E55-SWST76-2 Bus1=232 Bus2=157 Length=0.12000 R1=0.02327 X1=0.04560 R0=0.08060 X0=0.04870 C1=0.000000 C0=0.000000 Normamps=391.30000  Units=none
New Line.FD-E55-SWST76-1 Bus1=230 Bus2=158 Length=0.12000 R1=0.02327 X1=0.04560 R0=0.08060 X0=0.04870 C1=0.000000 C0=0.000000 Normamps=391.30000  Units=none
New Line.FD-SHILEY-EYE Bus1=214 Bus2=218 Length=0.37000 R1=0.02327 X1=0.04560 R0=0.08060 X0=0.04870 C1=0.000000 C0=0.000000 Normamps=391.30000  Units=none
New Line.FD-E55-SWST80-1 Bus1=234 Bus2=157 Length=0.10000 R1=0.02327 X1=0.04560 R0=0.08060 X0=0.04870 C1=0.000000 C0=0.000000 Normamps=391.30000  Units=none
New Line.FD-E55-SWST80-2 Bus1=236 Bus2=158 Length=0.10000 R1=0.02327 X1=0.04560 R0=0.08060 X0=0.04870 C1=0.000000 C0=0.000000 Normamps=391.30000  Units=none
New Line.FD-XFMR307 Bus1=243 Bus2=221 Length=0.04000 R1=0.02327 X1=0.04560 R0=0.08060 X0=0.04870 C1=0.000000 C0=0.000000 Normamps=391.30000  Units=none
New Line.FD-XFMR308 Bus1=242 Bus2=223 Length=0.01500 R1=0.02327 X1=0.04560 R0=0.08060 X0=0.04870 C1=0.000000 C0=0.000000 Normamps=391.30000  Units=none
New Line.FD-GEN-DIESEIL-1 Bus1=259 Bus2=GEN-DIESEL-1 Length=0.08000 R1=0.08579 X1=0.05660 R0=0.14312 X0=0.08520 C1=0.000000 C0=0.000000 Normamps=177.45000  Units=none
New Line.FD-GEN-DIESEIL-2 Bus1=260 Bus2=GEN-DIESEL-2 Length=0.08000 R1=0.08579 X1=0.05660 R0=0.14312 X0=0.08520 C1=0.000000 C0=0.000000 Normamps=177.45000  Units=none
New Line.FD-E531-ECCP-ME Bus1=143 Bus2=273 Length=0.04000 R1=0.02327 X1=0.04560 R0=0.08060 X0=0.04870 C1=0.000000 C0=0.000000 Normamps=391.30000  Units=none
New Line.FD-E531-ECCP-MW Bus1=144 Bus2=272 Length=0.04000 R1=0.02327 X1=0.04560 R0=0.08060 X0=0.04870 C1=0.000000 C0=0.000000 Normamps=391.30000  Units=none
New Line.FD-XFMR-335 Bus1=277 Bus2=279 Length=0.01000 R1=0.02327 X1=0.04560 R0=0.08060 X0=0.04870 C1=0.000000 C0=0.000000 Normamps=391.30000  Units=none
New Line.FD-XFMR-336 Bus1=278 Bus2=280 Length=0.04500 R1=0.02327 X1=0.04560 R0=0.08060 X0=0.04870 C1=0.000000 C0=0.000000 Normamps=391.30000  Units=none
New Line.FD-ECCP-E3-1 Bus1=292 Bus2=288 Length=0.59000 R1=0.02327 X1=0.04560 R0=0.08060 X0=0.04870 C1=0.000000 C0=0.000000 Normamps=391.30000  Units=none
New Line.FD-ECCP-E3-2 Bus1=291 Bus2=290 Length=0.59000 R1=0.02327 X1=0.04560 R0=0.08060 X0=0.04870 C1=0.000000 C0=0.000000 Normamps=391.30000  Units=none
New Line.FD-XFMR310 Bus1=225 Bus2=308 Length=0.05000 R1=0.02327 X1=0.04560 R0=0.08060 X0=0.04870 C1=0.000000 C0=0.000000 Normamps=391.30000  Units=none
New Line.FD-XFMR311 Bus1=227 Bus2=309 Length=0.05000 R1=0.02327 X1=0.04560 R0=0.08060 X0=0.04870 C1=0.000000 C0=0.000000 Normamps=391.30000  Units=none
New Line.FD-SWSTA78-E3 Bus1=314 Bus2=291 Length=0.82000 R1=0.02327 X1=0.04560 R0=0.08060 X0=0.04870 C1=0.000000 C0=0.000000 Normamps=391.30000  Units=none
New Line.FD-SWSTA79-E3 Bus1=315 Bus2=292 Length=0.82000 R1=0.02327 X1=0.04560 R0=0.08060 X0=0.04870 C1=0.000000 C0=0.000000 Normamps=391.30000  Units=none
New Line.FD-TIE-78-79 Bus1=321 Bus2=322 Length=0.00500 R1=0.02327 X1=0.04560 R0=0.08060 X0=0.04870 C1=0.000000 C0=0.000000 Normamps=391.30000  Units=none
New Line.FD-SHILEY-EMERG Bus1=310 Bus2=229 Length=0.05000 R1=0.02327 X1=0.04560 R0=0.08060 X0=0.04870 C1=0.000000 C0=0.000000 Normamps=391.30000  Units=none
New Line.FD-SWSTA77-E3-1 Bus1=317 Bus2=291 Length=0.03000 R1=0.02327 X1=0.04560 R0=0.08060 X0=0.04870 C1=0.000000 C0=0.000000 Normamps=391.30000  Units=none
New Line.FD-SWSTA77-E3-2 Bus1=316 Bus2=292 Length=0.03000 R1=0.02327 X1=0.04560 R0=0.08060 X0=0.04870 C1=0.000000 C0=0.000000 Normamps=391.30000  Units=none
New Line.FD-EC4-E61 Bus1=40 Bus2=341 Length=0.36000 R1=0.00582 X1=0.01140 R0=0.02015 X0=0.01218 C1=0.000000 C0=0.000000 Normamps=1565.20000  Units=none
New Line.FD-EC19-E61 Bus1=41 Bus2=340 Length=0.36000 R1=0.00582 X1=0.01140 R0=0.02015 X0=0.01218 C1=0.000000 C0=0.000000 Normamps=1565.20000  Units=none
New Line.FD-EC__-E62 Bus1=3090 Bus2=342 Length=0.36000 R1=0.02327 X1=0.04560 R0=0.08060 X0=0.04870 C1=0.000000 C0=0.000000 Normamps=391.30000  Units=none
New Line.FD-E61-E64-1 Bus1=340 Bus2=347 Length=1.23000 R1=0.00582 X1=0.01140 R0=0.02015 X0=0.01218 C1=0.000000 C0=0.000000 Normamps=1565.20000  Units=none
New Line.FD-E61-E64-2 Bus1=341 Bus2=349 Length=1.23000 R1=0.00582 X1=0.01140 R0=0.02015 X0=0.01218 C1=0.000000 C0=0.000000 Normamps=1565.20000  Units=none
New Line.FD-E61-E64-3 Bus1=342 Bus2=348 Length=1.23000 R1=0.02327 X1=0.04560 R0=0.08060 X0=0.04870 C1=0.000000 C0=0.000000 Normamps=391.30000  Units=none
New Line.FD-E64-E67-1 Bus1=347 Bus2=350 Length=1.27000 R1=0.00582 X1=0.01140 R0=0.02015 X0=0.01218 C1=0.000000 C0=0.000000 Normamps=1565.20000  Units=none